<?xml version="1.0" encoding="UTF-8"?>

<!-- generated on 2023-10-26 08:56:14 by Eclipse SUMO netedit Version 1.18.0
-->

<routes xmlns:xsi="http://www.w3.org/2001/XMLSchema-instance" xsi:noNamespaceSchemaLocation="http://sumo.dlr.de/xsd/routes_file.xsd">
    <!-- Vehicles, persons and containers (sorted by depart) -->
    <flow id="f_0" begin="0.00" from="58" to="71#1" end="3600.00" vehsPerHour="300.00"/>
    <flow id="f_1" begin="0.00" from="37" to="-30" end="3600.00" vehsPerHour="300.00"/>
    <flow id="f_2" begin="0.00" from="37" to="-58" end="3600.00" vehsPerHour="100.00"/>
    <flow id="f_3" begin="0.00" from="37" to="31" end="3600.00" vehsPerHour="50.00"/>
</routes>
