<?xml version="1.0" encoding="UTF-8"?>

<!-- generated on 2023-12-07 11:15:30 by Eclipse SUMO netedit Version 1.18.0
-->

<additional xmlns:xsi="http://www.w3.org/2001/XMLSchema-instance" xsi:noNamespaceSchemaLocation="http://sumo.dlr.de/xsd/additional_file.xsd">
    <!-- StoppingPlaces -->
    <busStop id="bs_0" lane="-3_0" startPos="3.89" endPos="13.89"/>
</additional>
