<?xml version="1.0" encoding="UTF-8"?>

<!-- generated on 2023-10-17 14:25:10 by Eclipse SUMO netedit Version 1.18.0
-->

<routes xmlns:xsi="http://www.w3.org/2001/XMLSchema-instance" xsi:noNamespaceSchemaLocation="http://sumo.dlr.de/xsd/routes_file.xsd">
    <!-- Vehicles, persons and containers (sorted by depart) -->
    <person id="p_0" depart="0.00">
        <walk from="-31" to="-50"/>
    </person>
    <person id="p_1" depart="0.00">
        <personTrip from="-31" to="-49" lines="ANY"/>
    </person>
    <person id="p_2" depart="0.00">
        <personTrip from="-31" to="-49" lines="ANY"/>
    </person>
</routes>
