<?xml version="1.0" encoding="UTF-8"?>

<!-- generated on 2023-10-17 17:08:40 by Eclipse SUMO netedit Version 1.18.0
-->

<routes xmlns:xsi="http://www.w3.org/2001/XMLSchema-instance" xsi:noNamespaceSchemaLocation="http://sumo.dlr.de/xsd/routes_file.xsd">
    <!-- Vehicles, persons and containers (sorted by depart) -->
    <flow id="f_0" begin="0.00" from="-44" to="-41" end="3600.00" vehsPerHour="200.00"/>
    <flow id="f_1" begin="0.00" from="-44" to="-28" end="3600.00" vehsPerHour="50.00"/>
    <flow id="f_2" begin="0.00" from="41" to="-40" end="3600.00" vehsPerHour="50.00"/>
    <flow id="f_3" begin="0.00" from="41" to="-28" end="3600.00" vehsPerHour="50.00"/>
    <flow id="f_4" begin="0.00" from="-44" to="-40" end="3600.00" vehsPerHour="150.00"/>
    <flow id="f_5" type="DEFAULT_BIKETYPE" begin="0.00" from="-44" to="-41" end="3600.00" vehsPerHour="50.00"/>
    <flow id="f_6" type="DEFAULT_BIKETYPE" begin="0.00" from="-44" to="-40" end="3600.00" vehsPerHour="100.00"/>
    <flow id="f_7" type="DEFAULT_BIKETYPE" begin="0.00" from="28" to="-41" end="3600.00" vehsPerHour="50.00"/>
    <!-- <person id="p_0" depart="0.00">
        <personTrip from="-27" to="-41" lines="ANY"/>
    </person>
    <person id="p_1" depart="0.00">
        <personTrip from="-27" to="-40" lines="ANY"/>
    </person> -->
</routes>
