<?xml version="1.0" encoding="UTF-8"?>

<!-- generated on 2023-12-07 11:19:50 by Eclipse SUMO netedit Version 1.18.0
-->

<routes xmlns:xsi="http://www.w3.org/2001/XMLSchema-instance" xsi:noNamespaceSchemaLocation="http://sumo.dlr.de/xsd/routes_file.xsd">
    <!-- VTypes -->
    <vType id="t_0" vClass="bus"/>
    <!-- Vehicles, persons and containers (sorted by depart) -->
    <flow id="f_0" begin="0.00" from="-44" to="-41" end="3600.00" vehsPerHour="200.00"/>
    <flow id="f_1" begin="0.00" from="-44" to="-28" end="3600.00" vehsPerHour="50.00"/>
    <flow id="f_2" begin="0.00" from="41" to="-40" end="3600.00" vehsPerHour="50.00"/>
    <flow id="f_3" begin="0.00" from="41" to="-28" end="3600.00" vehsPerHour="50.00"/>
    <flow id="f_4" begin="0.00" from="-44" to="-40" end="3600.00" vehsPerHour="150.00"/>
    <flow id="f_5" type="DEFAULT_BIKETYPE" begin="0.00" from="-44" to="-41" end="3600.00" vehsPerHour="50.00"/>
    <flow id="f_6" type="DEFAULT_BIKETYPE" begin="0.00" from="-44" to="-40" end="3600.00" vehsPerHour="100.00"/>
    <flow id="f_7" type="DEFAULT_BIKETYPE" begin="0.00" from="28" to="-41" end="3600.00" vehsPerHour="50.00"/>
    <flow id="f_8" type="t_0" begin="0.00" from="41" to="-31" end="3600.00" vehsPerHour="50.00">
        <stop busStop="bs_0" duration="10"></stop>
    </flow>
    
    <person id="p_0" depart="0.00">
        <personTrip from="-27" to="-41" lines="ANY"/>
    </person>
    <person id="p_1" depart="0.00">
        <personTrip from="-27" to="-40" lines="ANY"/>
    </person>
</routes>
