<?xml version="1.0" encoding="UTF-8"?>

<!-- generated on 2023-09-18 14:01:07 by Eclipse SUMO netedit Version 1.17.0
-->

<routes xmlns:xsi="http://www.w3.org/2001/XMLSchema-instance" xsi:noNamespaceSchemaLocation="http://sumo.dlr.de/xsd/routes_file.xsd">
    <!-- Vehicles, persons and containers (sorted by depart) -->
    <vehicle id="2" depart="2.00">
        <route edges="33 56 67 -67 -56 -33 -58 -77#0 -77#1 -0 -24 -55 -31 -17 -49 -52 -10 -69 -42 -51 -44 -66 -7 -45 -26 -27 -34 -61 -47 -22 -64 -29 -21 84 -13 -65 65 13"/>
    </vehicle>
    <vehicle id="3" depart="3.00">
        <route edges="70 -59 -2 -12 -73 -19#0 -19#1"/>
    </vehicle>
    <vehicle id="5" depart="5.00">
        <route edges="-36 -74 -38 -3 -75 -32 -14 -4 -35 35 4 14 32 75 3 38 74 36 -17 -49 -52 -10 -69 -42 -51 -44 -66 -7 -45 -26 -27 -34 -61 -47 -22 -64 -29 -21 71 25 76 43 68 -30 30 -68"/>
    </vehicle>
    <vehicle id="6" depart="6.00">
        <route edges="-13 -65 65 13 -84 71 25 76 43 68 -30"/>
    </vehicle>
    <vehicle id="7" depart="7.00">
        <route edges="14 32 75 3 38 74 36 -17 -49 -52 -10 -69 -42 -51 -44 -66 -7 -45 -26 -27 -34 -61 -47 -22 -64 -29 -21 71 25 76 43 68 -30 30 -68 -43 -76 -25 -71"/>
    </vehicle>
    <vehicle id="8" depart="8.00">
        <route edges="-36 -74 -38 -3 -75 -32 -14 -4 -35 35 4 14 32 75 3 38 74 36 -17 -49 -52 -10 -69 -42 -51 -44 -66 -7 -45 -26 -27 -34 -61 -47 -22 -64 -29 -21 71 25 76 43 68 -30 30 -68 -43 -76"/>
    </vehicle>
    <vehicle id="10" depart="10.00">
        <route edges="46 -24 -59 -2 -12 -73 -19#0 -19#1 -40 57 83#1 83#0 18"/>
    </vehicle>
    <vehicle id="11" depart="11.00">
        <route edges="-52 -10 -69 -42 -51 -44 -66 -7 -45 -26"/>
    </vehicle>
    <vehicle id="13" depart="13.00">
        <route edges="-20 -23 -72 -6 -53 -28 -60 40 19#1 19#0 73 12 2 59 -70 70 -59 -2"/>
    </vehicle>
    <vehicle id="14" depart="14.00">
        <route edges="58 33 56 67 -67 -56 -33 -58 -77#0 -77#1"/>
    </vehicle>
    <vehicle id="15" depart="15.00">
        <route edges="46 -24 -55 -31 -17 -49 -52 -10 -69 -42 -51 -44 -66 -7 -45 -26 -27 -34 -61 -47 -22 -64 -29 -21 71 25"/>
    </vehicle>
    <vehicle id="17" depart="17.00">
        <route edges="-57 40 19#1 19#0 73 12 2 59 -55 -31 -36 -74 -38 -3 -75 -32 -14 -4 -20 -23 -72"/>
    </vehicle>
    <vehicle id="18" depart="18.00">
        <route edges="56 67 -67 -56 -33 -58 -77#0 -77#1 -0 -24 -55 -31 -36 -74 -38 -3 -75 -32 -5 -8"/>
    </vehicle>
    <vehicle id="19" depart="19.00">
        <route edges="63 9 -24 -55 -31 -36 -74 -38 -3 -75"/>
    </vehicle>
    <vehicle id="20" depart="20.00">
        <route edges="3 38 74 36 -50 50 -36 -74 -38 -3 -75 -32 -14"/>
    </vehicle>
    <vehicle id="21" depart="21.00">
        <route edges="-38 -3 -75 -32 -14 -4 -35 35 4 14 32 75 3 38 74 36 -17 -49 -52 -10 -69 -42"/>
    </vehicle>
    <vehicle id="22" depart="22.00">
        <route edges="-2 -12 -73 -19#0 -19#1 -40 57 83#1 83#0 18 39 -39 -18 -83#0 -83#1 -57 40 19#1 19#0 73 12 2 59 -55 -31 -17 -49 -52 -10 -69 -42 -51 -44 -66 -7 -45 -26 -27 -34"/>
    </vehicle>
    <vehicle id="25" depart="25.00">
        <route edges="-56 -33 -58 -77#0 -77#1 -0 -24 -55 -31"/>
    </vehicle>
    <vehicle id="26" depart="26.00">
        <route edges="-42 -51 -44 -66 -7 -45 -26 -27 -34 -61 -47 -22 -64 -29 -21 71 25 76"/>
    </vehicle>
    <vehicle id="27" depart="27.00">
        <route edges="14 32 75 3 38 74 36 -50 50 -36 -74 -38 -3 -75 -32 -14 -4 -20 -23 -72 -6 -53 -28 -60 -80 -33 -58 -77#0 -77#1"/>
    </vehicle>
    <vehicle id="28" depart="28.00">
        <route edges="-29 -21 71 25"/>
    </vehicle>
    <vehicle id="29" depart="29.00">
        <route edges="-28 -60 40 19#1 19#0 73 12 2 59 -55 -31 -17 -49 -52"/>
    </vehicle>
    <vehicle id="31" depart="31.00">
        <route edges="-80 -33 -58 -77#0 -77#1 -0 -24 -55 -31 -36 -74 -38 -3 -75 -32 -14 -4 -35 35 4 14"/>
    </vehicle>
    <vehicle id="32" depart="32.00">
        <route edges="57 83#1 83#0 18 39 -39 -18 -83#0 -83#1 -57 -80 37"/>
    </vehicle>
    <vehicle id="33" depart="33.00">
        <route edges="-38 -3 -75 -32 -14 -4 -20 -23 -72 -6 -53 -28 -60 40 19#1 19#0 73 12 2 59 -70 70 -59 -2 -12"/>
    </vehicle>
    <vehicle id="37" depart="37.00">
        <route edges="16 12 2 59 -55 -31 -17 -49 -52 -10 -69 -42 -51 -44 -66 -7 -45 -26 -27 -34 -61 -47 -22 -64 -29 -21 79 -54"/>
    </vehicle>
    <vehicle id="38" depart="38.00">
        <route edges="74 36 -50 50 -36 -74 -38 -3 -75 -32 -14 -4 -20 -23 -72 -6 -53 -28 -60"/>
    </vehicle>
    <vehicle id="40" depart="40.00">
        <route edges="-80 -33 -58 -77#0 -77#1 -0 -24 -55 -31 -36 -74 -38"/>
    </vehicle>
    <vehicle id="41" depart="41.00">
        <route edges="-84 71"/>
    </vehicle>
    <vehicle id="42" depart="42.00">
        <route edges="-59 -2 -12 -73 -19#0 -19#1 -40 57 83#1 83#0 18 39 -39 -18 -83#0 -83#1 -57 40 19#1 19#0 73 12 2 59 -55 -31 -36 -74 -38 -3 -75 -32"/>
    </vehicle>
    <vehicle id="43" depart="43.00">
        <route edges="9 -24 -55 -31 -17 -49 -52 -10 -69 -42 -51 -44 -66 -7 -45 -26 -27 -34 -61 -47 -22 -64 -29 -21 71 25 76 43 68 -30 30 -68"/>
    </vehicle>
    <vehicle id="44" depart="44.00">
        <route edges="-20 -23 -72 -6 -53 -28 -60 40 19#1 19#0 73 12 2 59 -55 -31 -36 -74 -38 -3 -75 -32 -14"/>
    </vehicle>
    <vehicle id="47" depart="47.00">
        <route edges="-19#0 -19#1 -40 57 83#1 83#0 18 39 -39 -18 -83#0 -83#1 -57 40 19#1 19#0 73 12 2 59 -55 -31 -36 -74 -38 -3 -75 -32 -14 -4 -20 -23 -72 -6 -53"/>
    </vehicle>
    <vehicle id="48" depart="48.00">
        <route edges="9 -24 -55 -31 -17 -49 -52 -10 -69 -42 -51 -44 -66 -7"/>
    </vehicle>
    <vehicle id="49" depart="49.00">
        <route edges="83#0 18 39 -39 -18 -83#0 -83#1 -57 40 19#1 19#0 73 12 2 59"/>
    </vehicle>
    <vehicle id="51" depart="51.00">
        <route edges="19#1 19#0 73 12 2 59 -70"/>
    </vehicle>
    <vehicle id="54" depart="54.00">
        <route edges="-67 -56 -33 -58 -77#0 -77#1 -0 -46 46 0 77#1"/>
    </vehicle>
    <vehicle id="56" depart="56.00">
        <route edges="-72 -6 -53 -28 -60 40 19#1 19#0 73 12 2 59 -55 -31 -17 -49 -52 -10 -69 -42 -51 -44 -66 -7 -45 -26 -27 -34 -61 -47 -22 -64 -29"/>
    </vehicle>
    <vehicle id="60" depart="60.00">
        <route edges="38 74 36 -50 50 -36 -74 -38 -3 -75 -32 -14 -4 -20 -23 -72 -6 -53 -28 -60 40 19#1 19#0 73 12 2 59 -70"/>
    </vehicle>
    <vehicle id="61" depart="61.00">
        <route edges="40 19#1 19#0 73 12 2 59 -55 -31 -17 -49 -52 -10 -69 -42 -51 -44 -66 -7"/>
    </vehicle>
    <vehicle id="62" depart="62.00">
        <route edges="-0 -46"/>
    </vehicle>
    <vehicle id="63" depart="63.00">
        <route edges="-12 -73 -19#0 -19#1 -40 57 83#1 83#0 18 39 -39 -18 -83#0 -83#1 -57 40 19#1 19#0 73 12 2 59 -55 -31 -36 -74 -38 -3 -75 -32 -14 -4 -35 35 4 14 32 75"/>
    </vehicle>
    <vehicle id="67" depart="67.00">
        <route edges="-2 -12 -73 -19#0 -19#1 -40 57 83#1 83#0 18 39 -39 -18 -83#0 -83#1 -57 40 19#1 19#0 73 12 2 59 -55 -31 -17 -49 -52 -10 -69 -42 -51 -44 -66 -7 -45 -26 -27 -34 -61 -47 -22 -64"/>
    </vehicle>
    <vehicle id="68" depart="68.00">
        <route edges="-19#0 -19#1 -40 -80 -33 -58 -77#0 -77#1 -0 -46 46 0 77#1 77#0 58 33"/>
    </vehicle>
    <vehicle id="69" depart="69.00">
        <route edges="4 14 32 75 3 38 74 36 -50 50 -36 -74 -38 -3 -75 -32 -14 -4 -20 -23"/>
    </vehicle>
    <vehicle id="73" depart="73.00">
        <route edges="-77#0 -77#1 -0 -24 -55 -31 -17 -49 -52 -10 -69 -42 -51 -44 -66 -7 -45 -26 -27 -34 -61 -47 -22 -64 -29 -21 71 25"/>
    </vehicle>
    <vehicle id="74" depart="74.00">
        <route edges="-33 -58 -77#0 -77#1 -0 -24 -55 -31 -17 -49 -52 -10 -69 -42 -51 -44 -66 -7 -45"/>
    </vehicle>
    <vehicle id="75" depart="75.00">
        <route edges="9 -24 -55 -31 -17 -49 -52 -10 -69 -42 -51 -44 -66 -7 -45 -26 -27 -34 -61 -47 -22 -64 -29 -21 84 -13 -65 65 13 -84"/>
    </vehicle>
    <vehicle id="77" depart="77.00">
        <route edges="-23 -72 -6 -53 -28 -60 -80 -33"/>
    </vehicle>
    <vehicle id="78" depart="78.00">
        <route edges="-51 -44 -66 -7 -45 -26 -27 -34 -61 -47 -22 -64 -29 -21 71 25 76 43 68 -30 30 -68 -43 -76"/>
    </vehicle>
    <vehicle id="79" depart="79.00">
        <route edges="-38 -3 -75 -32"/>
    </vehicle>
    <vehicle id="80" depart="80.00">
        <route edges="-19#1 -40 57 83#1 83#0 18 39 -39 -18 -83#0"/>
    </vehicle>
    <vehicle id="81" depart="81.00">
        <route edges="-38 -3 -75 -32 -14 -4 -20 -23 -72 -6 -53 -28 -60 40 19#1 19#0 73"/>
    </vehicle>
    <vehicle id="82" depart="82.00">
        <route edges="59 -70 70 -59 -2 -12 -73 -19#0"/>
    </vehicle>
    <vehicle id="83" depart="83.00">
        <route edges="-39 -18 -83#0 -83#1 -57 40 19#1 19#0 73 12"/>
    </vehicle>
    <vehicle id="87" depart="87.00">
        <route edges="46 -24 -55 -31 -36 -74 -38 -3"/>
    </vehicle>
    <vehicle id="89" depart="89.00">
        <route edges="-61"/>
    </vehicle>
    <vehicle id="90" depart="90.00">
        <route edges="32 75 3 38 74 36 -17 -49 -52 -10 -69 -42 -51 -44 -66 -7 -45 -26 -27 -34 -61 -47 -22 -64 -29 -21 84 -13 -65 65 13"/>
    </vehicle>
    <vehicle id="92" depart="92.00">
        <route edges="-6 -53 -28 -60 40 19#1 19#0 73 12 2 59 -55 -31 -17 -49"/>
    </vehicle>
    <vehicle id="93" depart="93.00">
        <route edges="63 9 -24 -55 -31 -36"/>
    </vehicle>
    <vehicle id="94" depart="94.00">
        <route edges="-31 -36 -74 -38 -3 -75 -32 -14 -4 -20 -23 -72 -6"/>
    </vehicle>
    <vehicle id="96" depart="96.00">
        <route edges="-4 -35 35 4 14 32 75"/>
    </vehicle>
    <vehicle id="98" depart="98.00">
        <route edges="-77#1 -0 -24 -55 -31 -36 -74 -38 -3 -75 -32 -14"/>
    </vehicle>
    <vehicle id="99" depart="99.00">
        <route edges="9 0 77#1 77#0 58 33 56"/>
    </vehicle>
    <vehicle id="100" depart="100.00">
        <route edges="83#0 18 39 -39 -18 -83#0 -83#1 -57 40 19#1 19#0 73 12 2 59 -55 -31 -36 -74 -38 -3 -75 -32 -14 -4 -35 35 4 14 32 75"/>
    </vehicle>
    <vehicle id="101" depart="101.00">
        <route edges="58 33 56 67 -67 -56 -33 -58 -77#0 -77#1 -0 -24 -55 -31 -17 -49 -52 -10 -69 -42 -51 -44 -66 -7 -45 -26 -27"/>
    </vehicle>
    <vehicle id="103" depart="103.00">
        <route edges="-6 -53 -28 -60 40 19#1 19#0 73 12 2 59 -55 -31 -17"/>
    </vehicle>
    <vehicle id="104" depart="104.00">
        <route edges="-57 40 19#1 19#0 73 12 2 59 -55 -31 -17 -49 -52 -10 -69 -42 -51 -44 -66 -7 -45 -26 -27 -34 -61 -47 -22 -64 -29 -21 84"/>
    </vehicle>
    <vehicle id="106" depart="106.00">
        <route edges="-67 -56 -33 -58 -77#0 -77#1 -0 -24 -59 -2 -12 -73 -19#0 -19#1 -40 57 83#1 83#0 18 39 -39 -18 -83#0 -83#1 -57"/>
    </vehicle>
    <vehicle id="108" depart="108.00">
        <route edges="-77#1 -0 -24 -59 -2 -12 -73 -19#0 -19#1 -40 57 83#1 83#0 18 39 -39 -18 -83#0 -83#1 -57 40 19#1 19#0 73 12 2"/>
    </vehicle>
    <vehicle id="109" depart="109.00">
        <route edges="-27 -34 -61 -47 -22 -64 -29 -21 71 25 76 43 68 -30 30 -68 -43"/>
    </vehicle>
    <vehicle id="110" depart="110.00">
        <route edges="83#0 18 39 -39 -18 -83#0 -83#1 -57 40 19#1 19#0 73 12 2 59 -55 -31 -36 -74 -38 -3 -75"/>
    </vehicle>
    <vehicle id="111" depart="111.00">
        <route edges="-77#0 -77#1 -0 -24 -55 -31 -36 -74 -38 -3 -75 -32 -14 -4 -35 35 4 14 32"/>
    </vehicle>
    <vehicle id="112" depart="112.00">
        <route edges="-18 -83#0 -83#1 -57 40 19#1 19#0 73 12 2 59 -55 -31 -17 -49 -52 -10 -69 -42 -51 -44 -66 -7 -45 -26 -27 -34 -61 -47 -22 -64 -29 -21 71 25 76 43 68 -30 30 -68 -43 -76"/>
    </vehicle>
    <vehicle id="113" depart="113.00">
        <route edges="-72 -6 -53 -28 -60 -80 -33 -58 -77#0 -77#1 -0 -46 46 0 77#1 77#0 58"/>
    </vehicle>
    <vehicle id="114" depart="114.00">
        <route edges="-28 -60 40 19#1 19#0 73 12 2 59 -55 -31 -17 -49 -52 -10 -69 -42 -51 -44 -66 -7 -45 -26 -27 -34 -61 -47 -22 -64 -29 -21 79"/>
    </vehicle>
    <vehicle id="115" depart="115.00">
        <route edges="-2 -12 -73 -19#0 -19#1 -40 57 83#1 83#0 18 39 -39 -18 -83#0 -83#1 -57 40 19#1 19#0 73 12 2 59 -55 -31 -17 -49 -52 -10 -69 -42 -51 -44 -66 -7 -45 -26 -27 -34 -61 -47 -22 -64 -29"/>
    </vehicle>
    <vehicle id="116" depart="116.00">
        <route edges="-85 -62 4 14 32 75 3 38 74 36 -17 -49 -52 -10 -69 -42 -51 -44 -66 -7 -45 -26 -27 -34 -61 -47 -22 -64 -29 -21 84 -13 -65 65 13"/>
    </vehicle>
    <vehicle id="117" depart="117.00">
        <route edges="-39 -18 -83#0 -83#1 -57 40 19#1 19#0 73 12 2 59 -55 -31 -17 -49 -52 -10 -69 -42 -51 -44 -66 -7 -45 -26 -27 -34 -61 -47 -22"/>
    </vehicle>
    <vehicle id="118" depart="118.00">
        <route edges="70 -55 -31 -36 -74 -38 -3 -75 -32 -14 -4 -35"/>
    </vehicle>
    <vehicle id="119" depart="119.00">
        <route edges="-85 -62 4 14 -5 -8"/>
    </vehicle>
    <vehicle id="121" depart="121.00">
        <route edges="-75 -32 -14 -4 -35 35 4 14 32 75 3 38 74 36 -17 -49 -52 -10 -69 -42 -51 -44 -66 -7 -45 -26 -27 -34 -61 -47 -22 -64 -29 -21 71 25 76"/>
    </vehicle>
    <vehicle id="122" depart="122.00">
        <route edges="-33 -58 -77#0 -77#1 -0 -24 -59 -2 -12 -73 -19#0 -19#1 -40 57 83#1 83#0 18 39 -39 -18 -83#0 -83#1 -57 40 19#1"/>
    </vehicle>
    <vehicle id="123" depart="123.00">
        <route edges="-39 -18 -83#0 -83#1 -57 40 19#1 19#0 73 12 2 59 -55 -31 -17 -49 -52 -10 -69 -42 -51 -44 -66 -7 -45 -26 -27 -34 -61 -47 -22 -64 -29 -21 79 -54"/>
    </vehicle>
    <vehicle id="124" depart="124.00">
        <route edges="19#0 73 12 2 59 -55 -31 -17 -49 -52 -10 -69 -42 -51 -44 -66 -7 -45 -26 -27 -34 -61 -47 -22 -64 -29 -21 71 25 76 43 68 -30 30 -68 -43"/>
    </vehicle>
    <vehicle id="126" depart="126.00">
        <route edges="-19#1 -40 57 83#1 83#0 18 39 -39 -18 -83#0 -83#1 -57 40 19#1 19#0 73 12 2 59 -55 -31 -36 -74 -38 -3 -75 -32 -14 -4 -20 -23 -72 -6 -53 -28 -60"/>
    </vehicle>
    <vehicle id="127" depart="127.00">
        <route edges="9"/>
    </vehicle>
    <vehicle id="128" depart="128.00">
        <route edges="-19#1 -40 57 83#1 83#0 18 39 -39 -18 -83#0 -83#1 -57 40 19#1 19#0 73 12 2 59 -55 -31 -36 -74 -38 -3 -75 -32"/>
    </vehicle>
    <vehicle id="129" depart="129.00">
        <route edges="-42 -51 -44 -66 -7 -45 -26 -27 -34 -61 -47 -22 -64 -29 -21 71 25 76"/>
    </vehicle>
    <vehicle id="131" depart="131.00">
        <route edges="-56 -33 -58 -77#0 -77#1 -0 -24 -55 -31 -17 -49 -52 -10 -69 -42 -51 -44 -66 -7 -45 -26"/>
    </vehicle>
    <vehicle id="132" depart="132.00">
        <route edges="56 67 -67 -56 -33 -58 -77#0 -77#1 -0 -24 -59 -2 -12 -73 -19#0 -19#1 -40 57 83#1 83#0 18 39 -39 -18 -83#0 -83#1 -57 40 19#1 19#0"/>
    </vehicle>
    <vehicle id="133" depart="133.00">
        <route edges="1 48 -27 -34 -61 -47 -22 -64 -29 -21 84"/>
    </vehicle>
    <vehicle id="134" depart="134.00">
        <route edges="16 -73 -19#0 -19#1 -40 -80 -33 -58 -77#0 -77#1 -0"/>
    </vehicle>
    <vehicle id="135" depart="135.00">
        <route edges="48 -27 -34 -61 -47 -22 -64 -29 -21 71 25 76 43 68 -30 30 -68 -43"/>
    </vehicle>
    <vehicle id="136" depart="136.00">
        <route edges="18 39 -39 -18 -83#0 -83#1 -57 -80 -33 -58 -77#0 -77#1 -0 -46 46 0 77#1 77#0"/>
    </vehicle>
    <vehicle id="141" depart="141.00">
        <route edges="12 2 59 -55 -31 -36 -74 -38"/>
    </vehicle>
    <vehicle id="143" depart="143.00">
        <route edges="58 33 56 67 -67 -56 -33 -58 -77#0 -77#1 -0 -24 -59 -2"/>
    </vehicle>
    <vehicle id="145" depart="145.00">
        <route edges="-0 -46 46 0 77#1 77#0 58 33 37"/>
    </vehicle>
    <vehicle id="147" depart="147.00">
        <route edges="35 -20 -23 -72"/>
    </vehicle>
    <vehicle id="149" depart="149.00">
        <route edges="-19#1 -40 -80 -33 -58 -77#0 -77#1 -0 -46 46 0 77#1 77#0 58 33 56 67"/>
    </vehicle>
    <vehicle id="150" depart="150.00">
        <route edges="71 25 76 43 68 -30 30 -68 -43 -76 -25 -71"/>
    </vehicle>
    <vehicle id="151" depart="151.00">
        <route edges="56 67 -67 -56 -33 -58 -77#0 -77#1 -0 -24 -55 -31 -36 -74 -38 -3 -75"/>
    </vehicle>
    <vehicle id="153" depart="153.00">
        <route edges="-48 -1 1 48 -27 -34 -61 -47 -22 -64 -29 -21 71"/>
    </vehicle>
    <vehicle id="156" depart="156.00">
        <route edges="-4 -20"/>
    </vehicle>
    <vehicle id="157" depart="157.00">
        <route edges="40 19#1 19#0 73 12 2 59 -70 70 -59 -2 -12 -73 -19#0 -19#1 -40 -80 -33 -58 -77#0 -77#1 -0 -46 46 0 77#1 77#0 58 33 56 67"/>
    </vehicle>
    <vehicle id="158" depart="158.00">
        <route edges="-6 -53 -28 -60 -80"/>
    </vehicle>
    <vehicle id="159" depart="159.00">
        <route edges="-27 -34 -61 -47 -22 -64 -29 -21 71 25 76"/>
    </vehicle>
    <vehicle id="160" depart="160.00">
        <route edges="63 9 -24 -59 -2 -12 -73 -19#0 -19#1 -40 57 83#1"/>
    </vehicle>
    <vehicle id="162" depart="162.00">
        <route edges="-12 -73 -19#0 -19#1 -40 57 83#1 83#0 18 39 -39 -18 -83#0 -83#1 -57 40 19#1 19#0 73 12 2 59 -55 -31 -36 -74 -38 -3 -75 -32 -14 -4 -35 35 4 14 32 75 3"/>
    </vehicle>
    <vehicle id="163" depart="163.00">
        <route edges="-51 -44 -66 -7 -45 -26 -27 -34 -61 -47 -22 -64 -29 -21 71 25 76"/>
    </vehicle>
    <vehicle id="164" depart="164.00">
        <route edges="46 -24 -59 -2 -12 -73 -19#0 -19#1 -40 57 83#1 83#0 18 39 -39 -18 -83#0 -83#1 -57 40 19#1 19#0 73 12 2 59"/>
    </vehicle>
    <vehicle id="166" depart="166.00">
        <route edges="41 63 9 -24 -55 -31 -17 -49 -52 -10 -69 -42 -51 -44 -66 -7 -45 -26 -27 -34 -61 -47 -22 -64 -29 -21"/>
    </vehicle>
    <vehicle id="168" depart="168.00">
        <route edges="-36 -74 -38 -3 -75 -32 -14 -4 -35 35 4 14 32 75 3 38 74 36 -17 -49 -52 -10 -69 -42 -51 -44 -66 -7 -45 -26 -27 -34 -61 -47 -22 -64 -29 -21 71 25 76 43"/>
    </vehicle>
    <vehicle id="169" depart="169.00">
        <route edges="-67 -56 -33 -58 -77#0 -77#1 -0 -24 -55 -31 -17 -49 -52 -10 -69 -42 -51 -44"/>
    </vehicle>
    <vehicle id="171" depart="171.00">
        <route edges="-12 -73 -19#0 -19#1 -40 57 83#1 83#0 18 39 -39 -18 -83#0 -83#1 -57 40 19#1 19#0 73 12 2 59 -55 -31 -36 -74 -38 -3"/>
    </vehicle>
    <vehicle id="173" depart="173.00">
        <route edges="83#0 18 39 -39 -18 -83#0 -83#1 -57 40 19#1 19#0 73 12 2 59 -70 70 -59 -2 -12 -73 -19#0 -19#1 -40"/>
    </vehicle>
    <vehicle id="175" depart="175.00">
        <route edges="83#1 83#0 18 39 -39 -18 -83#0 -83#1 -57 40 19#1 19#0 73 12 2 59 -70"/>
    </vehicle>
    <vehicle id="176" depart="176.00">
        <route edges="77#0 58 33 56 67 -67 -56 -33 -58 -77#0 -77#1 -0 -24 -55 -31 -17 -49 -52 -10 -69 -42 -51 -44 -66 -7 -45 -26 -27 -34 -61 -47 -22"/>
    </vehicle>
    <vehicle id="177" depart="177.00">
        <route edges="83#0 18 39 -39 -18 -83#0 -83#1 -57 40 19#1 19#0 73 12 2 59 -55 -31 -17 -49 -52 -10 -69 -42 -51 -44 -66 -7 -45 -26 -27 -34 -61 -47 -22 -64 -29"/>
    </vehicle>
    <vehicle id="180" depart="180.00">
        <route edges="32 75 3 38 74 36 -17 -49 -52 -10 -69 -42 -51 -44 -66 -7 -45"/>
    </vehicle>
    <vehicle id="181" depart="181.00">
        <route edges="0 77#1 77#0 58 33 56 67 -67 -56 -33 -58 -77#0 -77#1 -0 -24 -55 -31 -17 -49 -52 -10 -69 -42 -51 -44 -66 -7 -45 -26 -27 -34 -61 -47 -22 -64 -29 -21 71 25 76 43 68 -30 30 -68"/>
    </vehicle>
    <vehicle id="182" depart="182.00">
        <route edges="-58 -77#0 -77#1 -0 -24 -55 -31 -36 -74 -38 -3 -75"/>
    </vehicle>
    <vehicle id="183" depart="183.00">
        <route edges="-40 57 83#1 83#0 18 39 -39 -18 -83#0 -83#1 -57 40 19#1"/>
    </vehicle>
    <vehicle id="184" depart="184.00">
        <route edges="-0 -24 -55 -31 -36 -74 -38 -3 -75 -32 -14 -4 -35 35 4 14 32 75"/>
    </vehicle>
    <vehicle id="186" depart="186.00">
        <route edges="35 -20 -23 -72 -6 -53 -28 -60 40 19#1 19#0 73 12"/>
    </vehicle>
    <vehicle id="187" depart="187.00">
        <route edges="-55 -31 -36 -74 -38 -3 -75 -32 -14 -4 -20 -23 -72 -6 -53 -28 -60 57 83#1 83#0 18 39 -39 -18"/>
    </vehicle>
    <vehicle id="188" depart="188.00">
        <route edges="18 39 -39 -18 -83#0 -83#1 -57 40 19#1 19#0 73 12 2 59 -55 -31 -17 -49 -52 -10 -69 -42 -51 -44 -66 -7 -45 -26 -27 -34 -61 -47"/>
    </vehicle>
    <vehicle id="190" depart="190.00">
        <route edges="30 -68 -43"/>
    </vehicle>
    <vehicle id="192" depart="192.00">
        <route edges="-6 -53 -28 -60 40 19#1 19#0 73 12 2 59 -55 -31 -17 -49 -52 -10 -69 -42 -51 -44 -66 -7 -45 -26 -27 -34 -61 -47 -22 -64 -29 -21 71 25 76 43 68 -30 30 -68 -43"/>
    </vehicle>
    <vehicle id="193" depart="193.00">
        <route edges="-24 -59 -2 -12 -73 -19#0 -19#1 -40 57 83#1 83#0 18 39 -39 -18 -83#0 -83#1 -57"/>
    </vehicle>
    <vehicle id="194" depart="194.00">
        <route edges="77#0 58 33 56 67 -67 -56 -33 -58 -77#0 -77#1 -0 -24 -55 -31 -17 -49 -52 -10 -69 -42 -51 -44 -66 -7 -45 -26 -27 -34 -61 -47 -22 -64 -29 -21 84 -13 -65 65 13"/>
    </vehicle>
    <vehicle id="196" depart="196.00">
        <route edges="-47 -22 -64 -29 -21 71 25 76 43 68 -30 30 -68 -43 -76 -25 -71"/>
    </vehicle>
    <vehicle id="197" depart="197.00">
        <route edges="-0 -24 -55 -31 -17 -49 -52 -10 -69 -42"/>
    </vehicle>
    <vehicle id="198" depart="198.00">
        <route edges="-62 4 14 32 75 3 38 74 36 -50 50 -36 -74 -38 -3 -75"/>
    </vehicle>
    <vehicle id="199" depart="199.00">
        <route edges="16 12 2 59 -55 -31 -17 -49 -52 -10 -69 -42 -51 -44 -66 -7 -45 -26 -27 -34 -61"/>
    </vehicle>
</routes>
