<?xml version="1.0" encoding="UTF-8"?>

<!-- generated on 2023-12-12 13:21:45 by Eclipse SUMO netedit Version 1.18.0
-->

<routes xmlns:xsi="http://www.w3.org/2001/XMLSchema-instance" xsi:noNamespaceSchemaLocation="http://sumo.dlr.de/xsd/routes_file.xsd">
    <!-- VTypes -->
    <vType id="t_0" vClass="bus"/>
    <!-- Vehicles, persons and containers (sorted by depart) -->
    <flow id="f_0" begin="0.00" from="-44" to="-41" end="3600.00" vehsPerHour="200.00"/>
    <flow id="f_1" begin="0.00" from="-44" to="-28" end="3600.00" vehsPerHour="50.00"/>
    <flow id="f_10" type="DEFAULT_TAXITYPE" begin="0.00" from="-44" to="-28" end="3600.00" vehsPerHour="500.00"/>
    <flow id="f_2" begin="0.00" from="41" to="-40" end="3600.00" vehsPerHour="50.00"/>
    <flow id="f_3" begin="0.00" from="41" to="-28" end="3600.00" vehsPerHour="50.00"/>
    <flow id="f_4" begin="0.00" from="-44" to="-40" end="3600.00" vehsPerHour="150.00"/>
    <flow id="f_5" type="DEFAULT_BIKETYPE" begin="0.00" from="-44" to="-41" end="3600.00" vehsPerHour="50.00"/>
    <flow id="f_6" type="DEFAULT_BIKETYPE" begin="0.00" from="-44" to="-40" end="3600.00" vehsPerHour="100.00"/>
    <flow id="f_7" type="DEFAULT_BIKETYPE" begin="0.00" from="28" to="-41" end="3600.00" vehsPerHour="50.00"/>
    <flow id="f_8" type="t_0" begin="0.00" from="41" to="-31" end="3600.00" vehsPerHour="50.00"/>
    <!-- <flow id="f_9" type="t_0" begin="0.00" from="41" to="-30" end="3600.00" vehsPerHour="50.00"/> -->
</routes>
