<?xml version="1.0" encoding="UTF-8"?>

<!-- generated on 2024-07-25 09:41:36 by Eclipse SUMO sumo Version 1.18.0
-->

<configuration xmlns:xsi="http://www.w3.org/2001/XMLSchema-instance" xsi:noNamespaceSchemaLocation="http://sumo.dlr.de/xsd/sumoConfiguration.xsd">

    <input>
        <net-file value="tum_main_groupA.net.xml"/>
        <route-files value="tum_main_groupA_demand.rou.xml"/>
        <additional-files value="tum_groupA.add.xml"/>
    </input>

</configuration>
