<?xml version="1.0" encoding="UTF-8"?>

<!-- generated on 2023-07-20 15:57:31 by Eclipse SUMO netconvert Version 1.17.0
<configuration xmlns:xsi="http://www.w3.org/2001/XMLSchema-instance" xsi:noNamespaceSchemaLocation="http://sumo.dlr.de/xsd/netconvertConfiguration.xsd">

    <input>
        <opendrive-files value=".\TUM_009.xodr"/>
    </input>

    <output>
        <output-file value=".\tum_009.net.xml"/>
    </output>

    <junctions>
        <no-turnarounds.except-deadend value="true"/>
    </junctions>

</configuration>
-->

<net version="1.16" junctionCornerDetail="5" rectangularLaneCut="true" limitTurnSpeed="5.50" xmlns:xsi="http://www.w3.org/2001/XMLSchema-instance" xsi:noNamespaceSchemaLocation="http://sumo.dlr.de/xsd/net_file.xsd">

    <location netOffset="171.44,218.82" convBoundary="0.00,0.00,353.33,331.65" origBoundary="0.000000,0.000000,0.000000,0.000000" projParameter="+proj=tmerc +lat_0=48.1485460905528 +lon_0=11.5679503890009 +k=1 +x_0=0 +y_0=0 +datum=WGS84 +units=m  +vunits=m +no_defs "/>

    <type id="bidirectional" priority="1" speed="1.39" disallow="pedestrian tram rail_urban rail rail_electric rail_fast ship" width="3.65"/>
    <type id="border" priority="0" speed="1.39" disallow="all" discard="1" width="0.10"/>
    <type id="driving" priority="1" speed="13.89" disallow="pedestrian tram rail_urban rail rail_electric rail_fast ship" width="3.65"/>
    <type id="entry" priority="1" speed="22.22" disallow="pedestrian tram rail_urban rail rail_electric rail_fast ship" width="3.65"/>
    <type id="exit" priority="1" speed="22.22" disallow="pedestrian tram rail_urban rail rail_electric rail_fast ship" width="3.65"/>
    <type id="median" priority="0" speed="1.39" disallow="all" discard="1" width="0.10"/>
    <type id="mwyEntry" priority="1" speed="22.22" allow="private emergency authority army vip passenger hov taxi bus coach delivery truck trailer motorcycle evehicle custom1 custom2" width="3.65"/>
    <type id="mwyExit" priority="1" speed="22.22" allow="private emergency authority army vip passenger hov taxi bus coach delivery truck trailer motorcycle evehicle custom1 custom2" width="3.65"/>
    <type id="none" priority="0" speed="1.39" disallow="all" discard="1" width="1.00"/>
    <type id="offRamp" priority="1" speed="22.22" allow="private emergency authority army vip passenger hov taxi bus coach delivery truck trailer motorcycle evehicle custom1 custom2" width="3.65"/>
    <type id="onRamp" priority="1" speed="22.22" allow="private emergency authority army vip passenger hov taxi bus coach delivery truck trailer motorcycle evehicle custom1 custom2" width="3.65"/>
    <type id="parking" priority="1" speed="1.39" disallow="pedestrian tram rail_urban rail rail_electric rail_fast ship" width="2.50"/>
    <type id="rail" priority="3" speed="33.33" allow="rail_urban rail rail_electric rail_fast" width="3.65"/>
    <type id="restricted" priority="0" speed="13.89" disallow="all" width="3.65"/>
    <type id="roadWorks" priority="0" speed="1.39" allow="authority" width="3.65"/>
    <type id="shoulder" priority="0" speed="1.39" disallow="all" discard="1" width="1.00"/>
    <type id="special1" priority="1" speed="22.22" allow="custom1" discard="1" width="3.65"/>
    <type id="special2" priority="1" speed="22.22" allow="custom2" discard="1" width="3.65"/>
    <type id="special3" priority="1" speed="22.22" allow="custom1 custom2" discard="1" width="3.65"/>
    <type id="stop" priority="1" speed="13.89" disallow="pedestrian tram rail_urban rail rail_electric rail_fast ship" width="3.65"/>
    <type id="tram" priority="2" speed="13.89" allow="tram" width="3.65"/>

    <edge id=":0.begin_0" function="internal">
        <lane id=":0.begin_0_0" index="0" disallow="pedestrian tram rail_urban rail rail_electric rail_fast ship" speed="3.65" length="4.67" width="3.20" shape="274.18,330.98 273.96,332.40 273.40,333.10 272.51,333.08 271.28,332.32"/>
    </edge>
    <edge id=":14#1_0" function="internal">
        <lane id=":14#1_0_0" index="0" allow="emergency authority" speed="17.88" length="3.32" width="1.50" shape="145.54,52.42 145.98,48.97"/>
        <lane id=":14#1_0_1" index="1" disallow="pedestrian tram rail_urban rail rail_electric rail_fast ship" speed="17.88" length="3.32" width="2.00" shape="147.96,51.38 147.73,50.49 147.77,49.82 147.81,49.16 147.58,48.27"/>
    </edge>
    <edge id=":14#1_2" function="internal">
        <lane id=":14#1_2_0" index="0" allow="emergency authority" speed="17.88" length="3.05" width="2.12" shape="152.40,46.15 152.81,46.96 153.17,47.48 153.52,48.00 153.93,48.81"/>
        <lane id=":14#1_2_1" index="1" disallow="pedestrian tram rail_urban rail rail_electric rail_fast ship" speed="17.88" length="3.05" width="3.56" shape="150.03,47.19 151.32,49.93"/>
    </edge>
    <edge id=":15_0" function="internal">
        <lane id=":15_0_0" index="0" allow="emergency authority" speed="17.88" length="29.05" width="1.50" shape="178.69,129.94 166.93,103.40"/>
        <lane id=":15_0_1" index="1" disallow="pedestrian tram rail_urban rail rail_electric rail_fast ship" speed="17.88" length="29.05" width="3.76" shape="180.79,129.06 169.34,102.33"/>
    </edge>
    <edge id=":15_2" function="internal">
        <lane id=":15_2_0" index="0" disallow="pedestrian tram rail_urban rail rail_electric rail_fast ship" speed="10.43" length="25.11" width="3.07" shape="183.37,127.97 182.04,122.01 183.36,116.79 187.35,112.31 194.00,108.59"/>
        <lane id=":15_2_1" index="1" disallow="pedestrian tram rail_urban rail rail_electric rail_fast ship" speed="9.96" length="22.83" width="3.05" shape="183.37,127.97 182.55,123.24 184.25,118.90 188.46,114.96 195.18,111.41"/>
    </edge>
    <edge id=":15_4" function="internal">
        <lane id=":15_4_0" index="0" disallow="pedestrian tram rail_urban rail rail_electric rail_fast ship" speed="10.70" length="25.74" width="3.07" shape="172.69,100.85 176.35,106.61 181.13,109.82 187.01,110.48 194.00,108.59"/>
        <lane id=":15_4_1" index="1" disallow="pedestrian tram rail_urban rail rail_electric rail_fast ship" speed="11.18" length="28.19" width="3.05" shape="172.69,100.85 176.89,107.84 182.04,111.93 188.14,113.12 195.18,111.41"/>
    </edge>
    <edge id=":15_6" function="internal">
        <lane id=":15_6_0" index="0" disallow="pedestrian tram rail_urban rail rail_electric rail_fast ship" speed="17.88" length="29.22" width="3.20" shape="172.69,100.85 185.98,126.87"/>
    </edge>
    <edge id=":15_7" function="internal">
        <lane id=":15_7_0" index="0" allow="emergency authority" speed="8.69" length="17.29" width="1.50" shape="162.79,118.02 166.38,115.64 168.27,112.41 168.45,108.32 166.93,103.40"/>
    </edge>
    <edge id=":15_8" function="internal">
        <lane id=":15_8_0" index="0" disallow="pedestrian tram rail_urban rail rail_electric rail_fast ship" speed="17.88" length="32.43" width="2.34" shape="162.79,118.02 192.95,106.09"/>
    </edge>
    <edge id=":15_9" function="internal">
        <lane id=":15_9_0" index="0" disallow="pedestrian tram rail_urban rail rail_electric rail_fast ship" speed="9.74" length="2.98" width="3.76" shape="163.87,120.45 166.36,118.82"/>
    </edge>
    <edge id=":15_10" function="internal">
        <lane id=":15_10_0" index="0" disallow="pedestrian tram rail_urban rail rail_electric rail_fast ship" speed="17.88" length="32.35" width="3.07" shape="163.87,120.45 194.00,108.59"/>
        <lane id=":15_10_1" index="1" disallow="pedestrian tram rail_urban rail rail_electric rail_fast ship" speed="17.88" length="32.35" width="3.05" shape="165.15,123.36 195.18,111.41"/>
    </edge>
    <edge id=":15_12" function="internal">
        <lane id=":15_12_0" index="0" disallow="pedestrian tram rail_urban rail rail_electric rail_fast ship" speed="10.16" length="23.86" width="3.20" shape="165.15,123.36 172.57,120.87 178.52,120.63 182.98,122.63 185.98,126.87"/>
    </edge>
    <edge id=":15_13" function="internal">
        <lane id=":15_13_0" index="0" disallow="pedestrian tram rail_urban rail rail_electric rail_fast ship" speed="9.74" length="18.57" width="3.76" shape="166.36,118.82 168.44,117.45 170.88,113.43 171.18,108.39 169.34,102.33"/>
    </edge>
    <edge id=":4.14_0" function="internal">
        <lane id=":4.14_0_0" index="0" disallow="pedestrian tram rail_urban rail rail_electric rail_fast ship" speed="17.88" length="3.08" width="3.25" shape="147.37,47.81 146.92,47.03 146.49,46.57 146.05,46.10 145.59,45.32"/>
    </edge>
    <edge id=":4.14_1" function="internal">
        <lane id=":4.14_1_0" index="0" allow="emergency authority" speed="17.88" length="3.01" width="1.80" shape="150.75,43.04 152.20,45.69"/>
        <lane id=":4.14_1_1" index="1" disallow="pedestrian tram rail_urban rail rail_electric rail_fast ship" speed="17.88" length="3.01" width="3.37" shape="148.56,44.01 149.83,46.73"/>
    </edge>
    <edge id=":41_0" function="internal">
        <lane id=":41_0_0" index="0" allow="emergency authority" speed="17.88" length="25.65" width="1.50" shape="245.27,279.25 235.30,255.65"/>
        <lane id=":41_0_1" index="1" disallow="pedestrian tram rail_urban rail rail_electric rail_fast ship" speed="17.88" length="25.65" width="3.20" shape="247.52,278.30 237.44,254.68"/>
    </edge>
    <edge id=":41_2" function="internal">
        <lane id=":41_2_0" index="0" disallow="pedestrian tram rail_urban rail rail_electric rail_fast ship" speed="9.80" length="21.17" width="2.75" shape="256.94,256.43 253.56,259.10 252.04,263.13 252.39,268.54 254.60,275.32"/>
    </edge>
    <edge id=":41_3" function="internal">
        <lane id=":41_3_0" index="0" disallow="pedestrian tram rail_urban rail rail_electric rail_fast ship" speed="9.81" length="21.88" width="3.20" shape="256.94,256.43 249.91,258.99 244.31,259.55 240.16,258.12 237.44,254.68"/>
    </edge>
    <edge id=":41_4" function="internal">
        <lane id=":41_4_0" index="0" allow="emergency authority" speed="17.88" length="25.79" width="1.50" shape="242.50,252.40 252.64,276.15"/>
        <lane id=":41_4_1" index="1" disallow="pedestrian tram rail_urban rail rail_electric rail_fast ship" speed="17.88" length="25.79" width="3.20" shape="240.36,253.37 250.47,277.06"/>
    </edge>
    <edge id=":41_6" function="internal">
        <lane id=":41_6_0" index="0" allow="emergency authority" speed="9.91" length="23.26" width="1.50" shape="234.41,276.50 237.76,273.95 239.03,269.62 238.20,263.52 235.30,255.65"/>
        <lane id=":41_6_1" index="1" disallow="pedestrian tram rail_urban rail rail_electric rail_fast ship" speed="10.25" length="24.98" width="3.20" shape="234.41,276.50 238.72,273.57 240.66,268.96 240.23,262.67 237.44,254.68"/>
    </edge>
    <edge id=":41_8" function="internal">
        <lane id=":41_8_0" index="0" disallow="pedestrian tram rail_urban rail rail_electric rail_fast ship" speed="8.96" length="17.47" width="3.20" shape="234.41,276.50 240.53,274.59 245.25,274.05 248.56,274.87 250.47,277.06"/>
    </edge>
    <edge id=":5#1_0" function="internal">
        <lane id=":5#1_0_0" index="0" allow="emergency authority" speed="17.88" length="3.07" width="1.44" shape="191.23,157.93 190.79,157.14 190.35,156.67 189.92,156.20 189.48,155.41"/>
        <lane id=":5#1_0_1" index="1" disallow="pedestrian tram rail_urban rail rail_electric rail_fast ship" speed="17.88" length="3.07" width="3.21" shape="193.41,156.99 192.96,156.20 192.51,155.74 192.07,155.28 191.61,154.49"/>
        <lane id=":5#1_0_2" index="2" allow="emergency authority" speed="17.88" length="3.07" width="2.46" shape="195.72,155.99 195.32,155.19 194.97,154.68 194.62,154.17 194.22,153.37"/>
    </edge>
    <edge id=":5#1_3" function="internal">
        <lane id=":5#1_3_0" index="0" disallow="pedestrian tram rail_urban rail rail_electric rail_fast ship" speed="17.88" length="3.00" width="2.50" shape="200.81,150.54 202.00,153.29"/>
        <lane id=":5#1_3_1" index="1" allow="emergency authority" speed="17.88" length="3.00" width="1.50" shape="198.98,151.33 200.16,154.08"/>
        <lane id=":5#1_3_2" index="2" disallow="pedestrian tram rail_urban rail rail_electric rail_fast ship" speed="17.88" length="3.00" width="3.20" shape="196.82,152.26 198.00,155.01"/>
    </edge>
    <edge id=":59_0" function="internal">
        <lane id=":59_0_0" index="0" allow="emergency authority" speed="17.88" length="13.95" width="1.50" shape="207.88,193.00 206.00,189.32 204.41,186.95 202.84,184.57 201.02,180.86"/>
        <lane id=":59_0_1" index="1" disallow="pedestrian tram rail_urban rail rail_electric rail_fast ship" speed="17.88" length="13.95" width="3.25" shape="210.03,192.06 208.16,188.38 206.58,186.01 205.02,183.64 203.21,179.94"/>
    </edge>
    <edge id=":59_2" function="internal">
        <lane id=":59_2_0" index="0" allow="emergency authority" speed="17.88" length="13.74" width="1.50" shape="209.98,177.09 215.11,189.82"/>
        <lane id=":59_2_1" index="1" disallow="pedestrian tram rail_urban rail rail_electric rail_fast ship" speed="17.88" length="13.74" width="3.20" shape="207.82,178.00 212.96,190.76"/>
    </edge>
    <edge id=":6.10_0" function="internal">
        <lane id=":6.10_0_0" index="0" disallow="pedestrian tram rail_urban rail rail_electric rail_fast ship" speed="17.88" length="3.01" width="2.65" shape="149.29,121.03 150.12,120.72 150.72,120.57 151.32,120.41 152.15,120.10"/>
        <lane id=":6.10_0_1" index="1" disallow="pedestrian tram rail_urban rail rail_electric rail_fast ship" speed="17.88" length="3.01" width="2.15" shape="150.27,123.25 151.10,122.93 151.69,122.77 152.29,122.61 153.12,122.29"/>
        <lane id=":6.10_0_2" index="2" disallow="pedestrian tram rail_urban rail rail_electric rail_fast ship" speed="17.88" length="3.01" width="3.16" shape="151.42,125.87 154.19,124.72"/>
        <lane id=":6.10_0_3" index="3" disallow="pedestrian tram rail_urban rail rail_electric rail_fast ship" speed="17.88" length="3.01" width="3.19" shape="152.74,128.88 155.47,127.63"/>
    </edge>
    <edge id=":6.12_0" function="internal">
        <lane id=":6.12_0_0" index="0" disallow="pedestrian tram rail_urban rail rail_electric rail_fast ship" speed="17.88" length="3.04" width="2.59" shape="121.23,133.52 123.90,132.19"/>
        <lane id=":6.12_0_1" index="1" disallow="pedestrian tram rail_urban rail rail_electric rail_fast ship" speed="17.88" length="3.04" width="2.26" shape="122.16,135.72 124.88,134.41"/>
        <lane id=":6.12_0_2" index="2" disallow="pedestrian tram rail_urban rail rail_electric rail_fast ship" speed="17.88" length="3.04" width="3.47" shape="123.36,138.54 124.17,138.14 124.69,137.79 125.22,137.44 126.03,137.03"/>
        <lane id=":6.12_0_3" index="3" disallow="pedestrian tram rail_urban rail rail_electric rail_fast ship" speed="17.88" length="3.04" width="3.10" shape="124.58,141.44 127.35,140.04"/>
    </edge>
    <edge id=":7.4_0" function="internal">
        <lane id=":7.4_0_0" index="0" disallow="pedestrian tram rail_urban rail rail_electric rail_fast ship" speed="17.88" length="8.04" width="3.20" shape="137.47,26.23 134.24,18.87"/>
    </edge>
    <edge id=":7.4_1" function="internal">
        <lane id=":7.4_1_0" index="0" allow="emergency authority" speed="17.88" length="8.15" width="1.55" shape="139.30,16.59 142.67,24.06"/>
        <lane id=":7.4_1_1" index="1" disallow="pedestrian tram rail_urban rail rail_electric rail_fast ship" speed="17.88" length="8.15" width="3.23" shape="137.16,17.56 140.46,24.98"/>
    </edge>
    <edge id=":7.begin_0" function="internal">
        <lane id=":7.begin_0_0" index="0" disallow="pedestrian tram rail_urban rail rail_electric rail_fast ship" speed="3.65" length="4.67" width="3.20" shape="126.06,0.66 126.30,-0.77 126.86,-1.46 127.76,-1.42 128.98,-0.66"/>
    </edge>
    <edge id=":8.5_0" function="internal">
        <lane id=":8.5_0_0" index="0" allow="emergency authority" speed="17.88" length="3.00" width="1.41" shape="186.66,148.86 185.55,146.07"/>
        <lane id=":8.5_0_1" index="1" disallow="pedestrian tram rail_urban rail rail_electric rail_fast ship" speed="17.88" length="3.00" width="3.14" shape="188.80,147.94 187.64,145.17"/>
        <lane id=":8.5_0_2" index="2" disallow="pedestrian tram rail_urban rail rail_electric rail_fast ship" speed="17.88" length="3.00" width="2.46" shape="191.40,146.82 190.22,144.07"/>
    </edge>
    <edge id=":8.5_3" function="internal">
        <lane id=":8.5_3_0" index="0" disallow="pedestrian tram rail_urban rail rail_electric rail_fast ship" speed="17.88" length="3.00" width="2.50" shape="196.81,141.24 197.99,143.99"/>
        <lane id=":8.5_3_1" index="1" allow="emergency authority" speed="17.88" length="3.00" width="1.50" shape="194.98,142.03 196.16,144.78"/>
        <lane id=":8.5_3_2" index="2" disallow="pedestrian tram rail_urban rail rail_electric rail_fast ship" speed="17.88" length="3.00" width="3.20" shape="192.82,142.95 194.00,145.71"/>
    </edge>
    <edge id=":9.14_0" function="internal">
        <lane id=":9.14_0_0" index="0" allow="emergency authority" speed="17.88" length="3.00" width="1.50" shape="158.70,84.12 157.55,81.35"/>
        <lane id=":9.14_0_1" index="1" disallow="pedestrian tram rail_urban rail rail_electric rail_fast ship" speed="17.88" length="3.00" width="3.76" shape="161.13,83.12 159.99,80.34"/>
    </edge>
    <edge id=":9.14_2" function="internal">
        <lane id=":9.14_2_0" index="0" disallow="pedestrian tram rail_urban rail rail_electric rail_fast ship" speed="17.88" length="3.00" width="2.12" shape="165.99,77.86 167.13,80.63"/>
        <lane id=":9.14_2_1" index="1" disallow="pedestrian tram rail_urban rail rail_electric rail_fast ship" speed="17.88" length="3.00" width="3.56" shape="163.37,78.95 164.51,81.72"/>
    </edge>

    <edge id="-0" from="0.begin" to="41" priority="1" type="parking|driving|driving" shape="272.73,331.65 266.93,319.18 266.09,317.37 265.25,315.55 265.01,315.02 264.17,313.20 263.35,311.38 262.53,309.56 261.72,307.73 260.92,305.89 260.13,304.06 259.44,302.45 258.66,300.61 257.88,298.77 257.65,298.23 249.00,277.68">
        <lane id="-0_0" index="0" disallow="pedestrian tram rail_urban rail rail_electric rail_fast ship" speed="17.88" length="59.11" width="2.83" shape="267.01,334.31 261.21,321.84 260.37,320.02 259.52,318.20 259.27,317.65 258.43,315.81 257.60,313.97 256.77,312.12 255.95,310.27 255.14,308.41 254.33,306.56 253.63,304.92 252.85,303.07 252.07,301.22 251.84,300.68 243.18,280.13" type="parking"/>
        <lane id="-0_1" index="1" allow="emergency authority" speed="17.88" length="59.11" width="1.69" shape="269.06,333.36 263.26,320.89 262.42,319.07 261.58,317.25 261.33,316.71 260.49,314.88 259.66,313.04 258.84,311.20 258.02,309.36 257.21,307.51 256.41,305.66 255.72,304.04 254.93,302.18 254.15,300.34 253.92,299.80 245.27,279.25" type="driving"/>
        <lane id="-0_2" index="2" disallow="pedestrian tram rail_urban rail rail_electric rail_fast ship" speed="17.88" length="59.11" width="3.20" shape="271.28,332.32 265.48,319.86 264.64,318.04 263.80,316.22 263.55,315.69 262.72,313.87 261.89,312.04 261.07,310.21 260.26,308.37 259.46,306.53 258.66,304.69 257.97,303.08 257.18,301.23 256.40,299.39 256.18,298.85 247.52,278.30" type="driving"/>
    </edge>
    <edge id="-10" from="6.10" to="15" priority="1" type="parking|driving|driving|driving" shape="154.74,129.69 165.79,124.81">
        <lane id="-10_0" index="0" disallow="pedestrian tram rail_urban rail rail_electric rail_fast ship" speed="17.88" length="10.58" width="2.65" shape="152.15,120.10 161.82,115.82" type="parking"/>
        <lane id="-10_1" index="1" disallow="pedestrian tram rail_urban rail rail_electric rail_fast ship" speed="17.88" length="10.58" width="2.15" shape="153.12,122.29 162.79,118.02" type="driving"/>
        <lane id="-10_2" index="2" disallow="pedestrian tram rail_urban rail rail_electric rail_fast ship" speed="17.88" length="10.58" width="3.16" shape="154.19,124.72 163.87,120.45" type="driving"/>
        <lane id="-10_3" index="3" disallow="pedestrian tram rail_urban rail rail_electric rail_fast ship" speed="17.88" length="10.58" width="3.19" shape="155.47,127.63 165.15,123.36" type="driving"/>
    </edge>
    <edge id="-11" from="41" to="59" priority="1" type="driving" shape="238.90,254.03 230.10,234.52 229.28,232.70 228.93,231.91 228.11,230.08 227.31,228.25 226.51,226.42 225.72,224.58 225.49,224.05 224.71,222.21 224.37,221.41 217.37,204.90 216.67,203.25 215.88,201.41 215.09,199.58 214.54,198.31 213.81,196.67 211.50,191.41">
        <lane id="-11_0" index="0" allow="emergency authority" speed="17.88" length="68.38" width="1.50" shape="235.30,255.65 226.50,236.14 225.68,234.32 225.32,233.52 224.50,231.68 223.69,229.84 222.88,227.99 222.09,226.14 221.85,225.59 221.07,223.75 220.73,222.95 213.74,206.44 213.04,204.80 212.26,202.97 211.47,201.15 210.92,199.90 210.20,198.26 207.88,193.00" type="driving"/>
        <lane id="-11_1" index="1" disallow="pedestrian tram rail_urban rail rail_electric rail_fast ship" speed="17.88" length="68.38" width="3.20" shape="237.44,254.68 228.64,235.18 227.82,233.35 227.47,232.56 226.65,230.73 225.84,228.90 225.04,227.06 224.25,225.22 224.02,224.67 223.23,222.83 222.90,222.04 215.90,205.53 215.20,203.88 214.42,202.04 213.62,200.21 213.07,198.95 212.35,197.31 210.03,192.06" type="driving"/>
    </edge>
    <edge id="-12" from="12.begin" to="6.12" priority="1" type="parking|driving|driving|parking" shape="1.00,194.51 88.05,158.26 88.76,157.96 90.61,157.19 90.87,157.08 91.57,156.79 126.24,142.13 126.50,142.01">
        <lane id="-12_0" index="0" disallow="pedestrian tram rail_urban rail rail_electric rail_fast ship" speed="17.88" length="134.49" width="2.41" shape="-2.82,185.40 84.25,149.14 84.95,148.85 86.79,148.08 87.03,147.98 87.72,147.69 121.23,133.52" type="parking"/>
        <lane id="-12_1" index="1" disallow="pedestrian tram rail_urban rail rail_electric rail_fast ship" speed="17.88" length="134.49" width="2.36" shape="-1.90,187.61 85.17,151.34 85.87,151.05 87.71,150.28 87.96,150.18 88.65,149.89 122.16,135.72" type="driving"/>
        <lane id="-12_2" index="2" disallow="pedestrian tram rail_urban rail rail_electric rail_fast ship" speed="17.88" length="134.49" width="3.76" shape="-0.72,190.43 86.34,154.17 87.05,153.87 88.90,153.10 89.15,153.00 89.84,152.70 123.36,138.54" type="driving"/>
        <lane id="-12_3" index="3" disallow="pedestrian tram rail_urban rail rail_electric rail_fast ship" speed="17.88" length="134.49" width="2.55" shape="0.49,193.35 87.56,157.08 88.27,156.79 90.11,156.01 90.37,155.91 91.07,155.61 124.58,141.44" type="parking"/>
    </edge>
    <edge id="-13" from="15" to="13.end" priority="1" type="parking|driving|driving|driving|parking" shape="196.71,115.04 258.90,88.89 259.07,88.82 259.57,88.61 259.74,88.54 318.22,63.89 318.84,63.63 320.67,62.86 321.36,62.58 353.33,49.27">
        <lane id="-13_0" index="0" disallow="pedestrian tram rail_urban rail rail_electric rail_fast ship" speed="17.88" length="169.89" width="2.69" shape="191.98,103.78 254.17,77.63 254.34,77.56 254.83,77.35 255.00,77.28 313.47,52.63 314.11,52.36 315.96,51.59 316.66,51.30 348.63,37.99" type="parking"/>
        <lane id="-13_1" index="1" disallow="pedestrian tram rail_urban rail rail_electric rail_fast ship" speed="17.88" length="169.89" width="2.34" shape="192.95,106.09 255.14,79.94 255.31,79.87 255.81,79.66 255.97,79.59 314.44,54.95 315.08,54.68 316.93,53.90 317.63,53.61 349.60,40.31" type="driving"/>
        <lane id="-13_2" index="2" disallow="pedestrian tram rail_urban rail rail_electric rail_fast ship" speed="17.88" length="169.89" width="3.07" shape="194.00,108.59 256.19,82.44 256.36,82.36 256.86,82.15 257.02,82.08 315.49,57.44 316.13,57.17 317.97,56.40 318.66,56.11 350.63,42.80" type="driving"/>
        <lane id="-13_3" index="3" disallow="pedestrian tram rail_urban rail rail_electric rail_fast ship" speed="17.88" length="169.89" width="3.05" shape="195.18,111.41 257.37,85.26 257.54,85.19 258.04,84.98 258.21,84.90 316.68,60.26 317.31,59.99 319.15,59.22 319.84,58.94 351.81,45.63" type="driving"/>
        <lane id="-13_4" index="4" disallow="pedestrian tram rail_urban rail rail_electric rail_fast ship" speed="17.88" length="169.89" width="2.42" shape="196.24,113.93 258.43,87.78 258.61,87.71 259.11,87.50 259.27,87.43 317.75,62.78 318.37,62.52 320.21,61.75 320.89,61.46 352.86,48.15" type="parking"/>
    </edge>
    <edge id="-14#0" from="4.14" to="14#1" priority="1" type="parking|driving" shape="147.69,46.04 148.49,47.87 149.09,49.24">
        <lane id="-14#0_0" index="0" allow="emergency authority" speed="17.88" length="0.50" width="1.80" shape="152.20,45.69 152.40,46.15" type="parking"/>
        <lane id="-14#0_1" index="1" disallow="pedestrian tram rail_urban rail rail_electric rail_fast ship" speed="17.88" length="0.50" width="3.37" shape="149.83,46.73 150.03,47.19" type="driving"/>
    </edge>
    <edge id="-14#1" from="14#1" to="9.14" priority="1" type="parking|driving" shape="149.09,49.24 149.29,49.70 150.08,51.54 150.86,53.38 151.26,54.33 152.03,56.18 152.80,58.03 152.91,58.31 162.30,81.01">
        <lane id="-14#1_0" index="0" disallow="pedestrian tram rail_urban rail rail_electric rail_fast ship" speed="17.88" length="31.44" width="2.12" shape="153.93,48.81 154.32,49.72 155.11,51.58 155.52,52.56 156.29,54.41 157.06,56.26 157.18,56.55 165.99,77.86" type="parking"/>
        <lane id="-14#1_1" index="1" disallow="pedestrian tram rail_urban rail rail_electric rail_fast ship" speed="17.88" length="31.44" width="3.56" shape="151.32,49.93 151.71,50.84 152.50,52.69 152.90,53.65 153.67,55.50 154.44,57.35 154.56,57.63 163.37,78.95" type="driving"/>
    </edge>
    <edge id="-4" from="7.4" to="4.14" priority="1" type="parking|driving" shape="137.34,21.86 138.15,23.69 138.94,25.53 139.71,27.37 140.47,29.22 141.24,31.07 142.00,32.92 142.78,34.76 143.57,36.60 144.38,38.43 144.55,38.81 145.34,40.65 146.11,42.49 146.23,42.77 147.05,44.60 147.69,46.04">
        <lane id="-4_0" index="0" allow="emergency authority" speed="17.88" length="20.66" width="1.55" shape="142.67,24.06 143.41,25.83 144.18,27.69 144.94,29.54 145.70,31.37 146.47,33.19 147.24,35.00 148.04,36.80 148.23,37.22 149.03,39.09 149.80,40.93 149.90,41.14 150.75,43.04" type="parking"/>
        <lane id="-4_1" index="1" disallow="pedestrian tram rail_urban rail rail_electric rail_fast ship" speed="17.88" length="20.66" width="3.23" shape="140.46,24.98 141.20,26.75 141.97,28.60 142.73,30.45 143.49,32.29 144.26,34.13 145.05,35.95 145.85,37.77 146.03,38.17 146.82,40.02 147.60,41.86 147.71,42.11 148.56,44.01" type="driving"/>
    </edge>
    <edge id="-5#0" from="59" to="5#1" priority="1" type="driving" shape="206.34,178.62 205.56,176.78 204.79,174.94 204.01,173.09 203.22,171.25 202.44,169.41 201.65,167.57 200.87,165.74 200.08,163.90 199.29,162.06 198.50,160.22 197.71,158.38 196.92,156.55 196.13,154.71 195.94,154.27">
        <lane id="-5#0_0" index="0" allow="emergency authority" speed="17.88" length="24.96" width="1.50" shape="201.02,180.86 200.24,179.02 199.47,177.19 198.69,175.35 197.91,173.51 197.13,171.68 196.34,169.84 195.56,168.01 194.77,166.17 193.99,164.34 193.20,162.50 192.41,160.66 191.62,158.83 191.23,157.93" type="driving"/>
        <lane id="-5#0_1" index="1" disallow="pedestrian tram rail_urban rail rail_electric rail_fast ship" speed="17.88" length="24.96" width="3.25" shape="203.21,179.94 202.43,178.10 201.66,176.26 200.88,174.42 200.10,172.58 199.31,170.75 198.53,168.91 197.75,167.07 196.96,165.24 196.17,163.40 195.38,161.56 194.59,159.73 193.80,157.89 193.41,156.99" type="driving"/>
        <lane id="-5#0_2" index="2" allow="emergency authority" speed="17.88" length="24.96" width="1.77" shape="205.53,178.96 204.75,177.12 203.97,175.28 203.19,173.44 202.41,171.60 201.63,169.76 200.84,167.92 200.05,166.08 199.27,164.25 198.48,162.41 197.69,160.57 196.90,158.73 196.11,156.90 195.72,155.99" type="driving"/>
    </edge>
    <edge id="-5#1" from="5#1" to="8.5" priority="1" type="driving" shape="195.94,154.27 195.34,152.87 194.55,151.04 193.76,149.20 192.97,147.36 192.18,145.52 191.94,144.96">
        <lane id="-5#1_0" index="0" allow="emergency authority" speed="17.88" length="7.13" width="1.44" shape="189.48,155.41 188.68,153.56 187.89,151.72 187.10,149.88 186.66,148.86" type="driving"/>
        <lane id="-5#1_1" index="1" disallow="pedestrian tram rail_urban rail rail_electric rail_fast ship" speed="17.88" length="7.13" width="3.21" shape="191.61,154.49 190.82,152.64 190.03,150.80 189.24,148.97 188.80,147.94" type="driving"/>
        <lane id="-5#1_2" index="2" disallow="pedestrian tram rail_urban rail rail_electric rail_fast ship" speed="17.88" length="7.13" width="2.46" shape="194.22,153.37 193.42,151.52 192.63,149.68 191.84,147.85 191.40,146.82" type="driving"/>
    </edge>
    <edge id="-6" from="6.12" to="6.10" priority="1" type="parking|driving|driving|driving" shape="126.63,142.05 154.75,129.69">
        <lane id="-6_0" index="0" disallow="pedestrian tram rail_urban rail rail_electric rail_fast ship" speed="17.88" length="27.74" width="2.59" shape="123.90,132.19 149.29,121.03" type="parking"/>
        <lane id="-6_1" index="1" disallow="pedestrian tram rail_urban rail rail_electric rail_fast ship" speed="17.88" length="27.74" width="2.26" shape="124.88,134.41 150.27,123.25" type="driving"/>
        <lane id="-6_2" index="2" disallow="pedestrian tram rail_urban rail rail_electric rail_fast ship" speed="17.88" length="27.74" width="3.47" shape="126.03,137.03 151.42,125.87" type="driving"/>
        <lane id="-6_3" index="3" disallow="pedestrian tram rail_urban rail rail_electric rail_fast ship" speed="17.88" length="27.74" width="3.10" shape="127.35,140.04 152.74,128.88" type="driving"/>
    </edge>
    <edge id="-7" from="7.begin" to="7.4" priority="1" type="parking|driving">
        <lane id="-7_0" index="0" allow="emergency authority" speed="17.88" length="19.97" width="1.50" shape="131.12,-1.62 139.30,16.59" type="parking"/>