<?xml version="1.0" encoding="UTF-8"?>

<!-- generated on 2024-02-21 15:44:31 by Eclipse SUMO netedit Version 1.19.0
<configuration xmlns:xsi="http://www.w3.org/2001/XMLSchema-instance" xsi:noNamespaceSchemaLocation="http://sumo.dlr.de/xsd/neteditConfiguration.xsd">

    <input>
        <sumo-net-file value="/home/soma/unity_ws/unity_tum_main_campus/Assets/SumoBridge/Sumo/sumoProject/tum_009_TL.net.xml"/>
    </input>

    <output>
        <output-file value="/home/soma/unity_ws/unity_tum_main_campus/Assets/SumoBridge/Sumo/sumoProject/tum_009_TL.net.xml"/>
    </output>

    <processing>
        <geometry.min-radius.fix.railways value="false"/>
        <geometry.max-grade.fix value="false"/>
        <offset.disable-normalization value="true"/>
        <lefthand value="0"/>
    </processing>

    <junctions>
        <no-internal-links value="false"/>
        <no-turnarounds value="true"/>
        <junctions.corner-detail value="5"/>
        <junctions.limit-turn-speed value="5.50"/>
        <rectangular-lane-cut value="1"/>
    </junctions>

    <pedestrian>
        <walkingareas value="0"/>
    </pedestrian>

</configuration>
-->

<net version="1.16" junctionCornerDetail="5" rectangularLaneCut="true" limitTurnSpeed="5.50" xmlns:xsi="http://www.w3.org/2001/XMLSchema-instance" xsi:noNamespaceSchemaLocation="http://sumo.dlr.de/xsd/net_file.xsd">

    <location netOffset="342.15,273.49" convBoundary="0.00,0.00,723.66,643.22" origBoundary="0.000000,0.000000,0.000000,0.000000" projParameter="+proj=tmerc +lat_0=48.1485460905528 +lon_0=11.5679503890009 +k=1 +x_0=0 +y_0=0 +datum=WGS84 +units=m +geoidgrids=egm96_15.gtx +vunits=m +no_defs "/>

    <type id="bidirectional" priority="1" speed="1.39" disallow="pedestrian tram rail_urban rail rail_electric rail_fast ship" width="3.65"/>
    <type id="driving" priority="1" speed="13.89" disallow="pedestrian tram rail_urban rail rail_electric rail_fast ship" width="3.65"/>
    <type id="parking" priority="1" speed="1.39" disallow="pedestrian tram rail_urban rail rail_electric rail_fast ship" width="2.50"/>

    <edge id=":1.end_0" function="internal">
        <lane id=":1.end_0_0" index="0" disallow="pedestrian tram rail_urban rail rail_electric rail_fast ship" speed="3.41" length="4.39" width="3.65" shape="106.26,421.45 106.50,420.12 107.03,419.47 107.87,419.52 109.01,420.25"/>
    </edge>
    <edge id=":123_0" function="internal">
        <lane id=":123_0_0" index="0" disallow="pedestrian tram rail_urban rail rail_electric rail_fast ship" speed="17.88" length="19.97" width="4.24" shape="66.81,572.34 59.84,553.63"/>
    </edge>
    <edge id=":123_1" function="internal">
        <lane id=":123_1_0" index="0" disallow="pedestrian tram rail_urban rail rail_electric rail_fast ship" speed="8.60" length="16.41" width="3.31" shape="75.13,557.66 71.41,559.95 69.29,562.95 68.77,566.69 69.84,571.16"/>
    </edge>
    <edge id=":123_2" function="internal">
        <lane id=":123_2_0" index="0" disallow="pedestrian tram rail_urban rail rail_electric rail_fast ship" speed="17.88" length="24.72" width="3.00" shape="75.13,557.66 52.47,567.54"/>
        <lane id=":123_2_1" index="1" disallow="pedestrian tram rail_urban rail rail_electric rail_fast ship" speed="17.88" length="24.72" width="3.40" shape="73.93,554.83 51.22,564.60"/>
    </edge>
    <edge id=":123_4" function="internal">
        <lane id=":123_4_0" index="0" disallow="pedestrian tram rail_urban rail rail_electric rail_fast ship" speed="8.48" length="15.67" width="4.24" shape="73.93,554.83 68.77,556.57 64.71,556.95 61.73,555.97 59.84,553.63"/>
    </edge>
    <edge id=":123_5" function="internal">
        <lane id=":123_5_0" index="0" disallow="pedestrian tram rail_urban rail rail_electric rail_fast ship" speed="17.88" length="20.16" width="3.31" shape="63.24,552.12 69.84,571.16"/>
    </edge>
    <edge id=":123_6" function="internal">
        <lane id=":123_6_0" index="0" disallow="pedestrian tram rail_urban rail rail_electric rail_fast ship" speed="9.12" length="18.96" width="3.40" shape="63.24,552.12 63.52,555.23 61.61,558.35 57.51,561.47 51.22,564.60"/>
    </edge>
    <edge id=":143_0" function="internal">
        <lane id=":143_0_0" index="0" disallow="pedestrian tram rail_urban rail rail_electric rail_fast ship" speed="8.85" length="13.80" width="2.75" shape="202.91,361.21 201.34,359.15 198.75,357.86 195.13,357.35 190.48,357.60"/>
    </edge>
    <edge id=":143_1" function="internal">
        <lane id=":143_1_0" index="0" disallow="pedestrian tram rail_urban rail rail_electric rail_fast ship" speed="17.88" length="18.34" width="3.20" shape="202.91,361.21 195.67,344.36"/>
    </edge>
    <edge id=":143_2" function="internal">
        <lane id=":143_2_0" index="0" disallow="pedestrian tram rail_urban rail rail_electric rail_fast ship" speed="17.88" length="18.34" width="3.20" shape="198.61,343.10 205.85,359.95"/>
    </edge>
    <edge id=":143_3" function="internal">
        <lane id=":143_3_0" index="0" disallow="pedestrian tram rail_urban rail rail_electric rail_fast ship" speed="8.68" length="5.09" width="2.75" shape="198.61,343.10 199.95,348.01"/>
    </edge>
    <edge id=":143_4" function="internal">
        <lane id=":143_4_0" index="0" disallow="pedestrian tram rail_urban rail rail_electric rail_fast ship" speed="8.68" length="15.41" width="2.75" shape="199.95,348.01 200.17,348.80 199.33,353.12 196.10,356.06 190.48,357.60"/>
    </edge>
    <edge id=":16#1_0" function="internal">
        <lane id=":16#1_0_0" index="0" allow="emergency authority" speed="17.88" length="3.09" width="1.44" shape="361.96,212.61 361.51,211.81 361.08,211.34 360.64,210.87 360.20,210.08"/>
        <lane id=":16#1_0_1" index="1" disallow="pedestrian tram rail_urban rail rail_electric rail_fast ship" speed="17.88" length="3.09" width="3.21" shape="364.14,211.67 363.69,210.88 363.24,210.42 362.79,209.95 362.33,209.16"/>
        <lane id=":16#1_0_2" index="2" allow="emergency authority" speed="17.88" length="3.09" width="2.46" shape="366.44,210.68 366.04,209.88 365.69,209.36 365.34,208.85 364.94,208.05"/>
    </edge>
    <edge id=":16#1_3" function="internal">
        <lane id=":16#1_3_0" index="0" disallow="pedestrian tram rail_urban rail rail_electric rail_fast ship" speed="17.88" length="3.01" width="2.50" shape="371.54,205.22 372.73,207.98"/>
        <lane id=":16#1_3_1" index="1" allow="emergency authority" speed="17.88" length="3.01" width="1.50" shape="369.70,206.00 370.89,208.77"/>
        <lane id=":16#1_3_2" index="2" disallow="pedestrian tram rail_urban rail rail_electric rail_fast ship" speed="17.88" length="3.01" width="3.20" shape="367.54,206.93 368.73,209.70"/>
    </edge>
    <edge id=":160_0" function="internal">
        <lane id=":160_0_0" index="0" allow="emergency authority" speed="17.88" length="29.03" width="1.50" shape="349.40,184.59 337.66,158.07"/>
        <lane id=":160_0_1" index="1" disallow="pedestrian tram rail_urban rail rail_electric rail_fast ship" speed="17.88" length="29.03" width="3.76" shape="351.50,183.71 340.06,157.00"/>
    </edge>
    <edge id=":160_2" function="internal">
        <lane id=":160_2_0" index="0" disallow="pedestrian tram rail_urban rail rail_electric rail_fast ship" speed="10.53" length="25.51" width="3.07" shape="354.08,182.63 352.67,176.45 353.94,171.07 357.88,166.51 364.51,162.75"/>
        <lane id=":160_2_1" index="1" disallow="pedestrian tram rail_urban rail rail_electric rail_fast ship" speed="10.05" length="23.21" width="3.05" shape="354.08,182.63 353.19,177.68 354.82,173.19 358.99,169.15 365.69,165.58"/>
    </edge>
    <edge id=":160_4" function="internal">
        <lane id=":160_4_0" index="0" disallow="pedestrian tram rail_urban rail rail_electric rail_fast ship" speed="10.63" length="25.31" width="3.07" shape="343.41,155.52 346.99,161.06 351.70,164.11 357.54,164.68 364.51,162.75"/>
        <lane id=":160_4_1" index="1" disallow="pedestrian tram rail_urban rail rail_electric rail_fast ship" speed="11.10" length="27.74" width="3.05" shape="343.41,155.52 347.53,162.28 352.62,166.22 358.67,167.31 365.69,165.58"/>
    </edge>
    <edge id=":160_6" function="internal">
        <lane id=":160_6_0" index="0" disallow="pedestrian tram rail_urban rail rail_electric rail_fast ship" speed="17.88" length="29.22" width="3.20" shape="343.41,155.52 356.70,181.54"/>
    </edge>
    <edge id=":160_7" function="internal">
        <lane id=":160_7_0" index="0" allow="emergency authority" speed="8.69" length="17.29" width="1.50" shape="333.51,172.69 337.11,170.30 339.00,167.07 339.18,162.99 337.66,158.07"/>
    </edge>
    <edge id=":160_8" function="internal">
        <lane id=":160_8_0" index="0" disallow="pedestrian tram rail_urban rail rail_electric rail_fast ship" speed="17.88" length="32.42" width="2.58" shape="333.51,172.69 363.41,160.15"/>
    </edge>
    <edge id=":160_9" function="internal">
        <lane id=":160_9_0" index="0" disallow="pedestrian tram rail_urban rail rail_electric rail_fast ship" speed="9.73" length="2.63" width="3.76" shape="334.58,175.12 336.79,173.67"/>
    </edge>
    <edge id=":160_10" function="internal">
        <lane id=":160_10_0" index="0" disallow="pedestrian tram rail_urban rail rail_electric rail_fast ship" speed="17.88" length="32.35" width="3.07" shape="334.58,175.12 364.51,162.75"/>
        <lane id=":160_10_1" index="1" disallow="pedestrian tram rail_urban rail rail_electric rail_fast ship" speed="17.88" length="32.35" width="3.05" shape="335.87,178.02 365.69,165.58"/>
    </edge>
    <edge id=":160_12" function="internal">
        <lane id=":160_12_0" index="0" disallow="pedestrian tram rail_urban rail rail_electric rail_fast ship" speed="10.16" length="23.87" width="3.20" shape="335.87,178.02 343.30,175.54 349.25,175.29 353.71,177.30 356.70,181.54"/>
    </edge>
    <edge id=":160_13" function="internal">
        <lane id=":160_13_0" index="0" disallow="pedestrian tram rail_urban rail rail_electric rail_fast ship" speed="9.73" length="18.92" width="3.76" shape="336.79,173.67 339.17,172.11 341.61,168.09 341.91,163.06 340.06,157.00"/>
    </edge>
    <edge id=":186_0" function="internal">
        <lane id=":186_0_0" index="0" disallow="pedestrian tram rail_urban rail rail_electric rail_fast ship" speed="17.88" length="24.48" width="3.20" shape="538.61,102.13 536.13,95.01 535.14,89.58 534.33,84.52 532.37,78.53"/>
    </edge>
    <edge id=":186_1" function="internal">
        <lane id=":186_1_0" index="0" disallow="pedestrian tram rail_urban rail rail_electric rail_fast ship" speed="9.85" length="22.09" width="2.80" shape="538.61,102.13 538.12,98.19 540.16,94.37 544.71,90.66 551.77,87.07"/>
    </edge>
    <edge id=":186_2" function="internal">
        <lane id=":186_2_0" index="0" disallow="pedestrian tram rail_urban rail rail_electric rail_fast ship" speed="8.76" length="17.16" width="2.36" shape="535.31,77.27 537.68,80.99 540.86,83.03 544.84,83.36 549.62,82.01"/>
    </edge>
    <edge id=":186_3" function="internal">
        <lane id=":186_3_0" index="0" disallow="pedestrian tram rail_urban rail rail_electric rail_fast ship" speed="17.88" length="24.11" width="3.59" shape="535.31,77.27 544.72,99.46"/>
    </edge>
    <edge id=":186_4" function="internal">
        <lane id=":186_4_0" index="0" allow="emergency authority" speed="9.85" length="23.12" width="3.20" shape="517.60,93.66 525.29,89.90 530.32,86.12 532.68,82.33 532.37,78.53"/>
    </edge>
    <edge id=":186_5" function="internal">
        <lane id=":186_5_0" index="0" disallow="pedestrian tram rail_urban rail rail_electric rail_fast ship" speed="17.88" length="34.06" width="2.36" shape="518.22,95.14 549.62,82.01"/>
        <lane id=":186_5_1" index="1" disallow="pedestrian tram rail_urban rail rail_electric rail_fast ship" speed="17.88" length="34.06" width="2.92" shape="519.30,97.74 550.65,84.44"/>
        <lane id=":186_5_2" index="2" disallow="pedestrian tram rail_urban rail rail_electric rail_fast ship" speed="17.88" length="34.06" width="2.80" shape="520.48,100.57 551.77,87.07"/>
    </edge>
    <edge id=":186_8" function="internal">
        <lane id=":186_8_0" index="0" disallow="pedestrian tram rail_urban rail rail_electric rail_fast ship" speed="10.75" length="26.15" width="3.59" shape="520.48,100.57 529.84,97.23 537.00,95.94 541.96,96.68 544.72,99.46"/>
    </edge>
    <edge id=":20.17_0" function="internal">
        <lane id=":20.17_0_0" index="0" disallow="pedestrian tram rail_urban rail rail_electric rail_fast ship" speed="17.88" length="5.71" width="2.37" shape="192.75,232.26 197.99,229.98"/>
        <lane id=":20.17_0_1" index="1" disallow="pedestrian tram rail_urban rail rail_electric rail_fast ship" speed="17.88" length="5.71" width="3.79" shape="193.93,235.08 199.17,232.82"/>
        <lane id=":20.17_0_2" index="2" disallow="pedestrian tram rail_urban rail rail_electric rail_fast ship" speed="17.88" length="5.71" width="2.60" shape="195.14,238.00 200.40,235.77"/>
    </edge>
    <edge id=":210_0" function="internal">
        <lane id=":210_0_0" index="0" allow="emergency authority" speed="17.88" length="5.12" width="4.91" shape="49.26,533.33 48.38,532.07 47.40,531.48 46.41,530.88 45.54,529.63"/>
        <lane id=":210_0_1" index="1" disallow="pedestrian tram rail_urban rail rail_electric rail_fast ship" speed="17.88" length="5.12" width="3.20" shape="51.19,532.49 49.25,528.01"/>
    </edge>
    <edge id=":210_2" function="internal">
        <lane id=":210_2_0" index="0" disallow="pedestrian tram rail_urban rail rail_electric rail_fast ship" speed="17.88" length="4.88" width="3.00" shape="55.03,525.49 56.97,529.98"/>
        <lane id=":210_2_1" index="1" disallow="pedestrian tram rail_urban rail rail_electric rail_fast ship" speed="17.88" length="4.88" width="3.20" shape="52.19,526.73 54.13,531.21"/>
    </edge>
    <edge id=":215_0" function="internal">
        <lane id=":215_0_0" index="0" disallow="pedestrian tram rail_urban rail rail_electric rail_fast ship" speed="17.88" length="27.85" width="3.20" shape="160.80,263.27 149.07,238.01"/>
    </edge>
    <edge id=":215_1" function="internal">
        <lane id=":215_1_0" index="0" disallow="pedestrian tram rail_urban rail rail_electric rail_fast ship" speed="10.41" length="24.91" width="3.76" shape="160.80,263.27 159.53,257.53 160.95,252.46 165.05,248.06 171.84,244.32"/>
    </edge>
    <edge id=":215_2" function="internal">
        <lane id=":215_2_0" index="0" disallow="pedestrian tram rail_urban rail rail_electric rail_fast ship" speed="9.84" length="21.77" width="2.36" shape="152.01,236.73 154.91,241.02 158.98,243.24 164.23,243.40 170.66,241.50"/>
    </edge>
    <edge id=":215_3" function="internal">
        <lane id=":215_3_0" index="0" disallow="pedestrian tram rail_urban rail rail_electric rail_fast ship" speed="17.88" length="27.87" width="3.20" shape="152.01,236.73 163.74,262.01"/>
    </edge>
    <edge id=":215_4" function="internal">
        <lane id=":215_4_0" index="0" disallow="pedestrian tram rail_urban rail rail_electric rail_fast ship" speed="9.36" length="20.26" width="3.20" shape="138.50,252.63 144.53,249.45 148.30,245.96 149.81,242.14 149.07,238.01"/>
    </edge>
    <edge id=":215_5" function="internal">
        <lane id=":215_5_0" index="0" disallow="pedestrian tram rail_urban rail rail_electric rail_fast ship" speed="17.88" length="33.96" width="2.36" shape="139.34,254.63 170.66,241.50"/>
        <lane id=":215_5_1" index="1" disallow="pedestrian tram rail_urban rail rail_electric rail_fast ship" speed="17.88" length="33.96" width="3.76" shape="140.45,257.27 171.84,244.32"/>
    </edge>
    <edge id=":215_7" function="internal">
        <lane id=":215_7_0" index="0" disallow="pedestrian tram rail_urban rail rail_electric rail_fast ship" speed="10.88" length="26.79" width="3.20" shape="140.45,257.27 148.66,254.72 155.27,254.66 160.30,257.09 163.74,262.01"/>
    </edge>
    <edge id=":236_0" function="internal">
        <lane id=":236_0_0" index="0" disallow="pedestrian tram rail_urban rail rail_electric rail_fast ship" speed="15.88" length="8.62" shape="241.33,457.32 240.75,454.91 241.00,453.10 241.25,451.29 240.69,448.87"/>
    </edge>
    <edge id=":236_1" function="internal">
        <lane id=":236_1_0" index="0" disallow="pedestrian tram rail_urban rail rail_electric rail_fast ship" speed="15.88" length="7.99" width="2.69" shape="246.59,446.38 249.16,453.95"/>
        <lane id=":236_1_1" index="1" disallow="pedestrian tram rail_urban rail rail_electric rail_fast ship" speed="15.88" length="7.99" width="2.78" shape="243.64,447.63 246.65,455.03"/>
    </edge>
    <edge id=":25.18_0" function="internal">
        <lane id=":25.18_0_0" index="0" disallow="pedestrian tram rail_urban rail rail_electric rail_fast ship" speed="17.88" length="0.30" width="2.19" shape="76.99,559.97 76.75,560.07"/>
        <lane id=":25.18_0_1" index="1" disallow="all" speed="17.88" length="0.30" width="0.58" shape="76.46,558.69 76.21,558.79"/>
        <lane id=":25.18_0_2" index="2" disallow="pedestrian tram rail_urban rail rail_electric rail_fast ship" speed="17.88" length="0.30" width="2.34" shape="75.90,557.34 75.64,557.45"/>
        <lane id=":25.18_0_3" index="3" disallow="pedestrian tram rail_urban rail rail_electric rail_fast ship" speed="17.88" length="0.30" width="3.81" shape="74.73,554.50 74.44,554.62"/>
        <lane id=":25.18_0_4" index="4" allow="emergency authority" speed="17.88" length="0.30" width="0.12" shape="73.98,552.68 73.67,552.81"/>
    </edge>
    <edge id=":251_0" function="internal">
        <lane id=":251_0_0" index="0" disallow="pedestrian bicycle tram rail_urban rail rail_electric rail_fast ship" speed="8.36" length="15.60" width="2.36" shape="449.24,408.28 447.30,405.56 444.38,404.26 440.46,404.39 435.56,405.95"/>
    </edge>
    <edge id=":251_1" function="internal">
        <lane id=":251_1_0" index="0" allow="bicycle" speed="17.88" length="22.46" width="1.69" shape="448.55,408.57 439.14,388.19"/>
        <lane id=":251_1_1" index="1" disallow="pedestrian bicycle tram rail_urban rail rail_electric rail_fast ship" speed="17.88" length="22.46" width="3.20" shape="449.24,408.28 441.38,387.22"/>
    </edge>
    <edge id=":251_3" function="internal">
        <lane id=":251_3_0" index="0" disallow="pedestrian tram rail_urban rail rail_electric rail_fast ship" speed="8.76" length="17.16" width="3.20" shape="463.14,395.73 457.47,398.57 453.75,401.40 451.99,404.22 452.19,407.04"/>
    </edge>
    <edge id=":251_4" function="internal">
        <lane id=":251_4_0" index="0" disallow="pedestrian bicycle tram rail_urban rail rail_electric rail_fast ship" speed="13.09" length="29.40" width="2.36" shape="463.14,395.73 435.56,405.95"/>
        <lane id=":251_4_1" index="1" disallow="all" speed="13.09" length="29.40" width="3.78" shape="461.89,392.79 434.37,403.12"/>
    </edge>
    <edge id=":251_6" function="internal">
        <lane id=":251_6_0" index="0" disallow="pedestrian bicycle tram rail_urban rail rail_electric rail_fast ship" speed="10.30" length="24.10" width="3.20" shape="461.89,392.79 454.89,394.88 449.14,394.65 444.63,392.10 441.38,387.22"/>
    </edge>
    <edge id=":251_7" function="internal">
        <lane id=":251_7_0" index="0" disallow="all" speed="17.88" length="22.58" width="1.50" shape="446.47,385.01 454.77,405.95"/>
        <lane id=":251_7_1" index="1" allow="bicycle" speed="17.88" length="22.58" width="1.50" shape="446.47,385.01 448.85,391.48 449.96,396.30 450.96,400.89 452.98,406.71"/>
        <lane id=":251_7_2" index="2" disallow="pedestrian tram rail_urban rail rail_electric rail_fast ship" speed="17.88" length="22.58" width="3.20" shape="444.32,385.94 452.19,407.04"/>
    </edge>
    <edge id=":251_10" function="internal">
        <lane id=":251_10_0" index="0" disallow="all" speed="9.92" length="5.12" width="3.78" shape="444.32,385.94 445.44,390.94"/>
    </edge>
    <edge id=":251_11" function="internal">
        <lane id=":251_11_0" index="0" disallow="all" speed="9.92" length="17.43" width="3.78" shape="445.44,390.94 445.49,391.13 444.22,395.73 440.51,399.72 434.37,403.12"/>
    </edge>
    <edge id=":26.end_0" function="internal">
        <lane id=":26.end_0_0" index="0" disallow="pedestrian tram rail_urban rail rail_electric rail_fast ship" speed="3.65" length="4.67" width="3.20" shape="101.50,642.58 101.24,644.00 100.67,644.69 99.78,644.64 98.56,643.86"/>
    </edge>
    <edge id=":271_0" function="internal">
        <lane id=":271_0_0" index="0" allow="bicycle" speed="17.88" length="25.65" width="1.50" shape="415.98,333.92 406.01,310.32"/>
        <lane id=":271_0_1" index="1" disallow="pedestrian bicycle tram rail_urban rail rail_electric rail_fast ship" speed="17.88" length="25.65" width="3.20" shape="418.24,332.97 408.15,309.36"/>
    </edge>
    <edge id=":271_2" function="internal">
        <lane id=":271_2_0" index="0" disallow="pedestrian tram rail_urban rail rail_electric rail_fast ship" speed="9.80" length="21.17" width="2.75" shape="427.65,311.10 424.27,313.77 422.75,317.81 423.10,323.21 425.31,329.99"/>
    </edge>
    <edge id=":271_3" function="internal">
        <lane id=":271_3_0" index="0" disallow="pedestrian tram rail_urban rail rail_electric rail_fast ship" speed="9.81" length="21.88" width="3.20" shape="427.65,311.10 420.62,313.66 415.02,314.23 410.87,312.79 408.15,309.36"/>
    </edge>
    <edge id=":271_4" function="internal">
        <lane id=":271_4_0" index="0" allow="bicycle" speed="17.88" length="25.78" width="1.50" shape="413.21,307.08 423.35,330.82"/>
        <lane id=":271_4_1" index="1" disallow="pedestrian tram rail_urban rail rail_electric rail_fast ship" speed="17.88" length="25.78" width="3.20" shape="411.07,308.04 421.18,331.73"/>
    </edge>
    <edge id=":271_6" function="internal">
        <lane id=":271_6_0" index="0" allow="bicycle" speed="9.72" length="22.33" width="1.50" shape="404.77,330.24 408.12,327.75 409.44,323.61 408.74,317.80 406.01,310.32"/>
        <lane id=":271_6_1" index="1" disallow="pedestrian tram rail_urban rail rail_electric rail_fast ship" speed="10.25" length="24.98" width="3.20" shape="405.13,331.17 409.43,328.25 411.37,323.64 410.94,317.34 408.15,309.36"/>
    </edge>
    <edge id=":271_8" function="internal">
        <lane id=":271_8_0" index="0" disallow="pedestrian tram rail_urban rail rail_electric rail_fast ship" speed="8.96" length="17.47" width="3.20" shape="405.13,331.17 411.25,329.27 415.96,328.73 419.28,329.55 421.18,331.73"/>
    </edge>
    <edge id=":289_0" function="internal">
        <lane id=":289_0_0" index="0" disallow="pedestrian tram rail_urban rail rail_electric rail_fast ship" speed="17.88" length="23.87" width="2.19" shape="168.17,521.33 146.19,530.79"/>
        <lane id=":289_0_1" index="1" disallow="pedestrian tram rail_urban rail rail_electric rail_fast ship" speed="17.88" length="23.87" width="2.34" shape="167.01,518.68 145.09,528.17"/>
        <lane id=":289_0_2" index="2" disallow="pedestrian tram rail_urban rail rail_electric rail_fast ship" speed="17.88" length="23.87" width="3.81" shape="165.78,515.86 143.89,525.33"/>
        <lane id=":289_0_3" index="3" disallow="pedestrian tram rail_urban rail rail_electric rail_fast ship" speed="17.88" length="23.87" width="2.07" shape="164.60,513.17 142.75,522.62"/>
    </edge>
    <edge id=":289_4" function="internal">
        <lane id=":289_4_0" index="0" allow="emergency authority" speed="9.59" length="21.22" width="0.00" shape="164.60,513.17 157.23,515.89 151.53,516.85 147.50,516.05 145.16,513.47"/>
        <lane id=":289_4_1" index="1" disallow="pedestrian tram rail_urban rail rail_electric rail_fast ship" speed="9.35" length="20.15" width="2.36" shape="164.60,513.17 157.70,515.69 152.34,516.50 148.52,515.60 146.24,513.00"/>
    </edge>
    <edge id=":289_6" function="internal">
        <lane id=":289_6_0" index="0" disallow="pedestrian tram rail_urban rail rail_electric rail_fast ship" speed="9.16" length="19.23" width="3.81" shape="151.96,510.50 153.04,515.05 152.05,519.04 149.00,522.46 143.89,525.33"/>
        <lane id=":289_6_1" index="1" disallow="pedestrian tram rail_urban rail rail_electric rail_fast ship" speed="8.01" length="14.20" width="2.07" shape="148.99,511.80 149.74,515.07 148.94,517.97 146.62,520.48 142.75,522.62"/>
    </edge>
    <edge id=":298_0" function="internal">
        <lane id=":298_0_0" index="0" disallow="all" speed="17.88" length="13.94" width="1.50" shape="378.60,247.67 376.72,243.99 375.14,241.62 373.57,239.25 371.75,235.54"/>
        <lane id=":298_0_1" index="1" disallow="pedestrian tram rail_urban rail rail_electric rail_fast ship" speed="17.88" length="13.94" width="3.25" shape="380.75,246.73 378.88,243.05 377.31,240.69 375.75,238.31 373.93,234.62"/>
    </edge>
    <edge id=":298_2" function="internal">
        <lane id=":298_2_0" index="0" disallow="all" speed="17.88" length="13.75" width="1.50" shape="380.70,231.75 385.82,244.49"/>
        <lane id=":298_2_1" index="1" disallow="pedestrian tram rail_urban rail rail_electric rail_fast ship" speed="17.88" length="13.75" width="3.20" shape="378.53,232.67 383.67,245.43"/>
    </edge>
    <edge id=":31.end_0" function="internal">
        <lane id=":31.end_0_0" index="0" disallow="pedestrian tram rail_urban rail rail_electric rail_fast ship" speed="3.65" length="4.67" width="3.20" shape="121.80,175.31 122.06,173.89 122.63,173.20 123.53,173.25 124.74,174.03"/>
    </edge>
    <edge id=":310_0" function="internal">
        <lane id=":310_0_0" index="0" allow="bicycle" speed="8.30" length="15.98" width="2.36" shape="336.92,450.34 332.39,451.76 329.08,452.10 325.79,452.46 321.28,453.93"/>
        <lane id=":310_0_1" index="1" disallow="all" speed="8.30" length="15.98" width="2.36" shape="335.85,447.79 321.28,453.93"/>
        <lane id=":310_0_2" index="2" disallow="pedestrian bicycle tram rail_urban rail rail_electric rail_fast ship" speed="8.30" length="15.98" width="3.78" shape="335.85,447.79 331.29,449.17 327.94,449.41 324.61,449.68 320.06,451.11"/>
        <lane id=":310_0_3" index="3" disallow="all" speed="8.30" length="15.98" width="3.78" shape="334.67,444.96 320.06,451.11"/>
        <lane id=":310_0_4" index="4" disallow="all" speed="8.30" length="15.98" width="2.06" shape="333.45,442.02 318.91,448.43"/>
    </edge>
    <edge id=":34.3_0" function="internal">
        <lane id=":34.3_0_0" index="0" disallow="pedestrian tram rail_urban rail rail_electric rail_fast ship" speed="15.88" length="2.97" width="3.20" shape="239.58,446.25 238.41,443.51"/>
    </edge>
    <edge id=":34.3_1" function="internal">
        <lane id=":34.3_1_0" index="0" disallow="pedestrian tram rail_urban rail rail_electric rail_fast ship" speed="15.88" length="3.03" shape="243.92,441.14 244.34,441.94 244.70,442.45 245.07,442.95 245.48,443.76"/>
        <lane id=":34.3_1_1" index="1" disallow="pedestrian tram rail_urban rail rail_electric rail_fast ship" speed="15.88" length="3.03" shape="241.35,442.25 242.53,445.00"/>
    </edge>
    <edge id=":35.15_0" function="internal">
        <lane id=":35.15_0_0" index="0" disallow="pedestrian tram rail_urban rail rail_electric rail_fast ship" speed="17.88" length="8.05" width="3.20" shape="308.19,80.91 304.95,73.54"/>
    </edge>
    <edge id=":35.15_1" function="internal">
        <lane id=":35.15_1_0" index="0" allow="emergency authority" speed="17.88" length="8.17" width="1.55" shape="310.01,71.26 313.38,78.74"/>
        <lane id=":35.15_1_1" index="1" disallow="pedestrian tram rail_urban rail rail_electric rail_fast ship" speed="17.88" length="8.17" width="3.23" shape="307.87,72.23 311.17,79.66"/>
    </edge>
    <edge id=":35.begin_0" function="internal">
        <lane id=":35.begin_0_0" index="0" disallow="pedestrian tram rail_urban rail rail_electric rail_fast ship" speed="3.65" length="4.67" width="3.20" shape="296.77,55.33 297.01,53.90 297.57,53.21 298.47,53.25 299.69,54.01"/>
    </edge>
    <edge id=":36.16_0" function="internal">
        <lane id=":36.16_0_0" index="0" allow="emergency authority" speed="17.88" length="3.00" width="1.41" shape="357.37,203.53 356.26,200.74"/>
        <lane id=":36.16_0_1" index="1" disallow="pedestrian tram rail_urban rail rail_electric rail_fast ship" speed="17.88" length="3.00" width="3.14" shape="359.50,202.61 358.36,199.84"/>
        <lane id=":36.16_0_2" index="2" disallow="pedestrian tram rail_urban rail rail_electric rail_fast ship" speed="17.88" length="3.00" width="2.46" shape="362.11,201.49 360.93,198.74"/>
    </edge>
    <edge id=":36.16_3" function="internal">
        <lane id=":36.16_3_0" index="0" disallow="pedestrian tram rail_urban rail rail_electric rail_fast ship" speed="17.88" length="3.00" width="2.50" shape="367.53,195.90 368.71,198.66"/>
        <lane id=":36.16_3_1" index="1" allow="emergency authority" speed="17.88" length="3.00" width="1.50" shape="365.69,196.69 366.87,199.45"/>
        <lane id=":36.16_3_2" index="2" disallow="pedestrian tram rail_urban rail rail_electric rail_fast ship" speed="17.88" length="3.00" width="3.20" shape="363.53,197.62 364.71,200.37"/>
    </edge>
    <edge id=":39.19_0" function="internal">
        <lane id=":39.19_0_0" index="0" disallow="pedestrian tram rail_urban rail rail_electric rail_fast ship" speed="17.88" length="0.31" width="2.19" shape="103.61,548.73 103.29,548.87"/>
        <lane id=":39.19_0_1" index="1" disallow="all" speed="17.88" length="0.31" width="0.58" shape="103.06,547.46 102.76,547.59"/>
        <lane id=":39.19_0_2" index="2" disallow="pedestrian tram rail_urban rail rail_electric rail_fast ship" speed="17.88" length="0.31" width="2.34" shape="102.49,546.12 102.20,546.24"/>
        <lane id=":39.19_0_3" index="3" disallow="pedestrian tram rail_urban rail rail_electric rail_fast ship" speed="17.88" length="0.31" width="3.81" shape="101.29,543.29 101.01,543.40"/>