<?xml version="1.0" encoding="UTF-8"?>

<!-- generated on 2023-10-17 14:35:18 by Eclipse SUMO netedit Version 1.18.0
<configuration xmlns:xsi="http://www.w3.org/2001/XMLSchema-instance" xsi:noNamespaceSchemaLocation="http://sumo.dlr.de/xsd/neteditConfiguration.xsd">

    <input>
        <route-files value="/home/ludwig-20-04/sumo_ws/sumo_unity_bridge/sumoProject/pedestrian_demand.rou.xml"/>
        <sumo-net-file value="/home/ludwig-20-04/sumo_ws/sumo_unity_bridge/sumoProject/tum_009.net.xml"/>
    </input>

    <output>
        <output-file value="/home/ludwig-20-04/sumo_ws/sumo_unity_bridge/sumoProject/tum_009.net.xml"/>
    </output>

    <processing>
        <geometry.min-radius.fix.railways value="false"/>
        <geometry.max-grade.fix value="false"/>
        <offset.disable-normalization value="true"/>
        <lefthand value="0"/>
    </processing>

    <junctions>
        <no-internal-links value="false"/>
        <no-turnarounds value="true"/>
        <junctions.corner-detail value="5"/>
        <junctions.limit-turn-speed value="5.50"/>
        <rectangular-lane-cut value="1"/>
    </junctions>

    <pedestrian>
        <walkingareas value="0"/>
    </pedestrian>

</configuration>
-->

<net version="1.16" junctionCornerDetail="5" rectangularLaneCut="true" limitTurnSpeed="5.50" xmlns:xsi="http://www.w3.org/2001/XMLSchema-instance" xsi:noNamespaceSchemaLocation="http://sumo.dlr.de/xsd/net_file.xsd">

    <location netOffset="342.15,273.49" convBoundary="0.00,0.00,723.66,643.22" origBoundary="0.000000,0.000000,0.000000,0.000000" projParameter="+proj=tmerc +lat_0=48.1485460905528 +lon_0=11.5679503890009 +k=1 +x_0=0 +y_0=0 +datum=WGS84 +units=m  +vunits=m +no_defs "/>

    <type id="bidirectional" priority="1" speed="1.39" disallow="pedestrian tram rail_urban rail rail_electric rail_fast ship" width="3.65"/>
    <type id="driving" priority="1" speed="13.89" disallow="pedestrian tram rail_urban rail rail_electric rail_fast ship" width="3.65"/>
    <type id="parking" priority="1" speed="1.39" disallow="pedestrian tram rail_urban rail rail_electric rail_fast ship" width="2.50"/>

    <edge id=":1.end_0" function="internal">
        <lane id=":1.end_0_0" index="0" disallow="pedestrian tram rail_urban rail rail_electric rail_fast ship" speed="3.41" length="4.39" width="3.65" shape="106.26,421.45 106.50,420.12 107.03,419.47 107.87,419.52 109.01,420.25"/>
    </edge>
    <edge id=":110_0" function="internal">
        <lane id=":110_0_0" index="0" disallow="pedestrian tram rail_urban rail rail_electric rail_fast ship" speed="8.60" length="19.97" width="4.24" shape="66.81,572.34 59.84,553.63"/>
    </edge>
    <edge id=":110_1" function="internal">
        <lane id=":110_1_0" index="0" disallow="pedestrian tram rail_urban rail rail_electric rail_fast ship" speed="8.60" length="16.41" width="3.31" shape="75.13,557.66 71.41,559.95 69.29,562.95 68.77,566.69 69.84,571.16"/>
    </edge>
    <edge id=":110_2" function="internal">
        <lane id=":110_2_0" index="0" disallow="pedestrian tram rail_urban rail rail_electric rail_fast ship" speed="8.60" length="24.72" width="3.00" shape="75.13,557.66 52.47,567.54"/>
        <lane id=":110_2_1" index="1" disallow="pedestrian tram rail_urban rail rail_electric rail_fast ship" speed="8.60" length="24.72" width="3.40" shape="73.93,554.83 51.22,564.60"/>
    </edge>
    <edge id=":110_4" function="internal">
        <lane id=":110_4_0" index="0" disallow="pedestrian tram rail_urban rail rail_electric rail_fast ship" speed="8.48" length="15.67" width="4.24" shape="73.93,554.83 68.77,556.57 64.71,556.95 61.73,555.97 59.84,553.63"/>
    </edge>
    <edge id=":110_5" function="internal">
        <lane id=":110_5_0" index="0" disallow="pedestrian tram rail_urban rail rail_electric rail_fast ship" speed="8.60" length="20.16" width="3.31" shape="63.24,552.12 69.84,571.16"/>
    </edge>
    <edge id=":110_6" function="internal">
        <lane id=":110_6_0" index="0" disallow="pedestrian tram rail_urban rail rail_electric rail_fast ship" speed="8.60" length="18.96" width="3.40" shape="63.24,552.12 63.52,555.23 61.61,558.35 57.51,561.47 51.22,564.60"/>
    </edge>
    <edge id=":130_0" function="internal">
        <lane id=":130_0_0" index="0" disallow="pedestrian tram rail_urban rail rail_electric rail_fast ship" speed="8.60" length="13.80" width="2.75" shape="202.91,361.21 201.34,359.15 198.75,357.86 195.13,357.35 190.48,357.60"/>
    </edge>
    <edge id=":130_1" function="internal">
        <lane id=":130_1_0" index="0" disallow="pedestrian tram rail_urban rail rail_electric rail_fast ship" speed="8.60" length="18.34" width="3.20" shape="202.91,361.21 195.67,344.36"/>
    </edge>
    <edge id=":130_2" function="internal">
        <lane id=":130_2_0" index="0" disallow="pedestrian tram rail_urban rail rail_electric rail_fast ship" speed="8.60" length="18.34" width="3.20" shape="198.61,343.10 205.85,359.95"/>
    </edge>
    <edge id=":130_3" function="internal">
        <lane id=":130_3_0" index="0" disallow="pedestrian tram rail_urban rail rail_electric rail_fast ship" speed="8.60" length="5.09" width="2.75" shape="198.61,343.10 199.95,348.01"/>
    </edge>
    <edge id=":130_4" function="internal">
        <lane id=":130_4_0" index="0" disallow="pedestrian tram rail_urban rail rail_electric rail_fast ship" speed="8.60" length="15.41" width="2.75" shape="199.95,348.01 200.17,348.80 199.33,353.12 196.10,356.06 190.48,357.60"/>
    </edge>
    <edge id=":147_0" function="internal">
        <lane id=":147_0_0" index="0" allow="emergency authority" speed="8.60" length="29.03" width="1.50" shape="349.40,184.59 337.66,158.07"/>
        <lane id=":147_0_1" index="1" disallow="pedestrian tram rail_urban rail rail_electric rail_fast ship" speed="8.60" length="29.03" width="3.76" shape="351.50,183.71 340.06,157.00"/>
    </edge>
    <edge id=":147_2" function="internal">
        <lane id=":147_2_0" index="0" disallow="pedestrian tram rail_urban rail rail_electric rail_fast ship" speed="8.60" length="25.51" width="3.07" shape="354.08,182.63 352.67,176.45 353.94,171.07 357.88,166.51 364.51,162.75"/>
        <lane id=":147_2_1" index="1" disallow="pedestrian tram rail_urban rail rail_electric rail_fast ship" speed="8.60" length="23.21" width="3.05" shape="354.08,182.63 353.19,177.68 354.82,173.19 358.99,169.15 365.69,165.58"/>
    </edge>
    <edge id=":147_4" function="internal">
        <lane id=":147_4_0" index="0" disallow="pedestrian tram rail_urban rail rail_electric rail_fast ship" speed="8.60" length="25.31" width="3.07" shape="343.41,155.52 346.99,161.06 351.70,164.11 357.54,164.68 364.51,162.75"/>
        <lane id=":147_4_1" index="1" disallow="pedestrian tram rail_urban rail rail_electric rail_fast ship" speed="8.60" length="27.74" width="3.05" shape="343.41,155.52 347.53,162.28 352.62,166.22 358.67,167.31 365.69,165.58"/>
    </edge>
    <edge id=":147_6" function="internal">
        <lane id=":147_6_0" index="0" disallow="pedestrian tram rail_urban rail rail_electric rail_fast ship" speed="8.60" length="29.22" width="3.20" shape="343.41,155.52 356.70,181.54"/>
    </edge>
    <edge id=":147_7" function="internal">
        <lane id=":147_7_0" index="0" allow="emergency authority" speed="8.60" length="17.29" width="1.50" shape="333.51,172.69 337.11,170.30 339.00,167.07 339.18,162.99 337.66,158.07"/>
    </edge>
    <edge id=":147_8" function="internal">
        <lane id=":147_8_0" index="0" disallow="pedestrian tram rail_urban rail rail_electric rail_fast ship" speed="8.60" length="32.42" width="2.58" shape="333.51,172.69 363.41,160.15"/>
    </edge>
    <edge id=":147_9" function="internal">
        <lane id=":147_9_0" index="0" disallow="pedestrian tram rail_urban rail rail_electric rail_fast ship" speed="8.60" length="2.63" width="3.76" shape="334.58,175.12 336.79,173.67"/>
    </edge>
    <edge id=":147_10" function="internal">
        <lane id=":147_10_0" index="0" disallow="pedestrian tram rail_urban rail rail_electric rail_fast ship" speed="8.60" length="32.35" width="3.07" shape="334.58,175.12 364.51,162.75"/>
        <lane id=":147_10_1" index="1" disallow="pedestrian tram rail_urban rail rail_electric rail_fast ship" speed="8.60" length="32.35" width="3.05" shape="335.87,178.02 365.69,165.58"/>
    </edge>
    <edge id=":147_12" function="internal">
        <lane id=":147_12_0" index="0" disallow="pedestrian tram rail_urban rail rail_electric rail_fast ship" speed="8.60" length="23.87" width="3.20" shape="335.87,178.02 343.30,175.54 349.25,175.29 353.71,177.30 356.70,181.54"/>
    </edge>
    <edge id=":147_13" function="internal">
        <lane id=":147_13_0" index="0" disallow="pedestrian tram rail_urban rail rail_electric rail_fast ship" speed="8.60" length="18.92" width="3.76" shape="336.79,173.67 339.17,172.11 341.61,168.09 341.91,163.06 340.06,157.00"/>
    </edge>
    <edge id=":173_0" function="internal">
        <lane id=":173_0_0" index="0" allow="bicycle" speed="8.46" length="18.91" width="2.36" shape="450.70,412.78 447.97,408.15 444.54,405.47 440.40,404.74 435.57,405.95"/>
    </edge>
    <edge id=":173_1" function="internal">
        <lane id=":173_1_0" index="0" disallow="pedestrian tram rail_urban rail rail_electric rail_fast ship" speed="8.60" length="27.19" width="3.20" shape="451.09,412.62 441.38,387.22"/>
    </edge>
    <edge id=":173_2" function="internal">
        <lane id=":173_2_0" index="0" allow="bicycle" speed="8.46" length="29.41" width="2.36" shape="463.31,396.12 435.57,405.95"/>
        <lane id=":173_2_1" index="1" disallow="pedestrian tram rail_urban rail rail_electric rail_fast ship" speed="8.46" length="29.41" width="3.78" shape="461.89,392.79 434.37,403.12"/>
    </edge>
    <edge id=":173_4" function="internal">
        <lane id=":173_4_0" index="0" disallow="pedestrian tram rail_urban rail rail_electric rail_fast ship" speed="8.60" length="24.10" width="3.20" shape="461.89,392.79 454.89,394.88 449.14,394.65 444.63,392.10 441.38,387.22"/>
    </edge>
    <edge id=":173_5" function="internal">
        <lane id=":173_5_0" index="0" disallow="pedestrian tram rail_urban rail rail_electric rail_fast ship" speed="8.60" length="27.21" width="3.20" shape="444.32,385.94 454.03,411.36"/>
    </edge>
    <edge id=":173_6" function="internal">
        <lane id=":173_6_0" index="0" disallow="pedestrian tram rail_urban rail rail_electric rail_fast ship" speed="8.46" length="22.55" width="3.78" shape="444.32,385.94 445.49,391.13 444.22,395.73 440.51,399.72 434.37,403.12"/>
    </edge>
    <edge id=":19#1_0" function="internal">
        <lane id=":19#1_0_0" index="0" allow="emergency authority" speed="8.60" length="3.09" width="1.44" shape="361.96,212.61 361.51,211.81 361.08,211.34 360.64,210.87 360.20,210.08"/>
        <lane id=":19#1_0_1" index="1" disallow="pedestrian tram rail_urban rail rail_electric rail_fast ship" speed="8.60" length="3.09" width="3.21" shape="364.14,211.67 363.69,210.88 363.24,210.42 362.79,209.95 362.33,209.16"/>
        <lane id=":19#1_0_2" index="2" allow="emergency authority" speed="8.60" length="3.09" width="2.46" shape="366.44,210.68 366.04,209.88 365.69,209.36 365.34,208.85 364.94,208.05"/>
    </edge>
    <edge id=":19#1_3" function="internal">
        <lane id=":19#1_3_0" index="0" disallow="pedestrian tram rail_urban rail rail_electric rail_fast ship" speed="8.60" length="3.01" width="2.50" shape="371.54,205.22 372.73,207.98"/>
        <lane id=":19#1_3_1" index="1" allow="emergency authority" speed="8.60" length="3.01" width="1.50" shape="369.70,206.00 370.89,208.77"/>
        <lane id=":19#1_3_2" index="2" disallow="pedestrian tram rail_urban rail rail_electric rail_fast ship" speed="8.60" length="3.01" width="3.20" shape="367.54,206.93 368.73,209.70"/>
    </edge>
    <edge id=":193_0" function="internal">
        <lane id=":193_0_0" index="0" disallow="pedestrian tram rail_urban rail rail_electric rail_fast ship" speed="8.60" length="24.48" width="3.20" shape="538.61,102.13 536.13,95.01 535.14,89.58 534.33,84.52 532.37,78.53"/>
    </edge>
    <edge id=":193_1" function="internal">
        <lane id=":193_1_0" index="0" disallow="pedestrian tram rail_urban rail rail_electric rail_fast ship" speed="8.60" length="22.09" width="2.80" shape="538.61,102.13 538.12,98.19 540.16,94.37 544.71,90.66 551.77,87.07"/>
    </edge>
    <edge id=":193_2" function="internal">
        <lane id=":193_2_0" index="0" disallow="pedestrian tram rail_urban rail rail_electric rail_fast ship" speed="8.60" length="17.16" width="2.36" shape="535.31,77.27 537.68,80.99 540.86,83.03 544.84,83.36 549.62,82.01"/>
    </edge>
    <edge id=":193_3" function="internal">
        <lane id=":193_3_0" index="0" disallow="pedestrian tram rail_urban rail rail_electric rail_fast ship" speed="8.60" length="24.11" width="3.59" shape="535.31,77.27 544.72,99.46"/>
    </edge>
    <edge id=":193_4" function="internal">
        <lane id=":193_4_0" index="0" allow="emergency authority" speed="8.60" length="23.12" width="3.20" shape="517.60,93.66 525.29,89.90 530.32,86.12 532.68,82.33 532.37,78.53"/>
    </edge>
    <edge id=":193_5" function="internal">
        <lane id=":193_5_0" index="0" disallow="pedestrian tram rail_urban rail rail_electric rail_fast ship" speed="8.60" length="34.06" width="2.36" shape="518.22,95.14 549.62,82.01"/>
        <lane id=":193_5_1" index="1" disallow="pedestrian tram rail_urban rail rail_electric rail_fast ship" speed="8.60" length="34.06" width="2.92" shape="519.30,97.74 550.65,84.44"/>
        <lane id=":193_5_2" index="2" disallow="pedestrian tram rail_urban rail rail_electric rail_fast ship" speed="8.60" length="34.06" width="2.80" shape="520.48,100.57 551.77,87.07"/>
    </edge>
    <edge id=":193_8" function="internal">
        <lane id=":193_8_0" index="0" disallow="pedestrian tram rail_urban rail rail_electric rail_fast ship" speed="8.60" length="26.15" width="3.59" shape="520.48,100.57 529.84,97.23 537.00,95.94 541.96,96.68 544.72,99.46"/>
    </edge>
    <edge id=":2.12_0" function="internal">
        <lane id=":2.12_0_0" index="0" disallow="pedestrian tram rail_urban rail rail_electric rail_fast ship" speed="8.60" length="0.30" width="2.83" shape="433.14,380.06 433.03,379.78"/>
        <lane id=":2.12_0_1" index="1" allow="emergency authority" speed="8.60" length="0.30" width="1.69" shape="435.22,379.16 435.10,378.88"/>
        <lane id=":2.12_0_2" index="2" disallow="pedestrian tram rail_urban rail rail_electric rail_fast ship" speed="8.60" length="0.30" width="3.20" shape="437.46,378.18 437.34,377.91"/>
    </edge>
    <edge id=":2.12_3" function="internal">
        <lane id=":2.12_3_0" index="0" disallow="pedestrian tram rail_urban rail rail_electric rail_fast ship" speed="8.60" length="0.30" width="2.75" shape="444.38,374.85 444.50,375.13"/>
        <lane id=":2.12_3_1" index="1" allow="emergency authority" speed="8.60" length="0.30" width="1.50" shape="442.43,375.70 442.55,375.98"/>
        <lane id=":2.12_3_2" index="2" disallow="pedestrian tram rail_urban rail rail_electric rail_fast ship" speed="8.60" length="0.30" width="3.20" shape="440.28,376.64 440.40,376.91"/>
    </edge>
    <edge id=":217_0" function="internal">
        <lane id=":217_0_0" index="0" disallow="pedestrian tram rail_urban rail rail_electric rail_fast ship" speed="8.60" length="11.21" width="2.19" shape="159.60,525.14 149.26,529.50"/>
        <lane id=":217_0_1" index="1" disallow="all" speed="8.60" length="11.21" width="0.58" shape="159.05,523.86 148.72,528.22"/>
        <lane id=":217_0_2" index="2" disallow="pedestrian tram rail_urban rail rail_electric rail_fast ship" speed="8.60" length="11.21" width="2.34" shape="158.48,522.52 148.16,526.87"/>
        <lane id=":217_0_3" index="3" disallow="pedestrian tram rail_urban rail rail_electric rail_fast ship" speed="8.60" length="11.21" width="3.81" shape="157.28,519.69 146.97,524.04"/>
    </edge>
    <edge id=":217_4" function="internal">
        <lane id=":217_4_0" index="0" disallow="pedestrian tram rail_urban rail rail_electric rail_fast ship" speed="6.96" length="10.44" width="3.81" shape="150.68,515.69 151.39,518.37 151.00,520.65 149.53,522.54 146.97,524.04"/>
    </edge>
    <edge id=":23.20_0" function="internal">
        <lane id=":23.20_0_0" index="0" disallow="pedestrian tram rail_urban rail rail_electric rail_fast ship" speed="8.60" length="5.71" width="2.37" shape="192.75,232.26 197.99,229.98"/>
        <lane id=":23.20_0_1" index="1" disallow="pedestrian tram rail_urban rail rail_electric rail_fast ship" speed="8.60" length="5.71" width="3.79" shape="193.93,235.08 199.17,232.82"/>
        <lane id=":23.20_0_2" index="2" disallow="pedestrian tram rail_urban rail rail_electric rail_fast ship" speed="8.60" length="5.71" width="2.60" shape="195.14,238.00 200.40,235.77"/>
    </edge>
    <edge id=":231_0" function="internal">
        <lane id=":231_0_0" index="0" allow="emergency authority" speed="8.60" length="5.12" width="4.91" shape="49.26,533.33 48.38,532.07 47.40,531.48 46.41,530.88 45.54,529.63"/>
        <lane id=":231_0_1" index="1" disallow="pedestrian tram rail_urban rail rail_electric rail_fast ship" speed="8.60" length="5.12" width="3.20" shape="51.19,532.49 49.25,528.01"/>
    </edge>
    <edge id=":231_2" function="internal">
        <lane id=":231_2_0" index="0" disallow="pedestrian tram rail_urban rail rail_electric rail_fast ship" speed="8.60" length="4.88" width="3.00" shape="55.03,525.49 56.97,529.98"/>
        <lane id=":231_2_1" index="1" disallow="pedestrian tram rail_urban rail rail_electric rail_fast ship" speed="8.60" length="4.88" width="3.20" shape="52.19,526.73 54.13,531.21"/>
    </edge>
    <edge id=":236_0" function="internal">
        <lane id=":236_0_0" index="0" disallow="pedestrian tram rail_urban rail rail_electric rail_fast ship" speed="8.60" length="27.85" width="3.20" shape="160.80,263.27 149.07,238.01"/>
    </edge>
    <edge id=":236_1" function="internal">
        <lane id=":236_1_0" index="0" disallow="pedestrian tram rail_urban rail rail_electric rail_fast ship" speed="8.60" length="24.91" width="3.76" shape="160.80,263.27 159.53,257.53 160.95,252.46 165.05,248.06 171.84,244.32"/>
    </edge>
    <edge id=":236_2" function="internal">
        <lane id=":236_2_0" index="0" disallow="pedestrian tram rail_urban rail rail_electric rail_fast ship" speed="8.60" length="21.77" width="2.36" shape="152.01,236.73 154.91,241.02 158.98,243.24 164.23,243.40 170.66,241.50"/>
    </edge>
    <edge id=":236_3" function="internal">
        <lane id=":236_3_0" index="0" disallow="pedestrian tram rail_urban rail rail_electric rail_fast ship" speed="8.60" length="27.87" width="3.20" shape="152.01,236.73 163.74,262.01"/>
    </edge>
    <edge id=":236_4" function="internal">
        <lane id=":236_4_0" index="0" disallow="pedestrian tram rail_urban rail rail_electric rail_fast ship" speed="8.60" length="20.26" width="3.20" shape="138.50,252.63 144.53,249.45 148.30,245.96 149.81,242.14 149.07,238.01"/>
    </edge>
    <edge id=":236_5" function="internal">
        <lane id=":236_5_0" index="0" disallow="pedestrian tram rail_urban rail rail_electric rail_fast ship" speed="8.60" length="33.96" width="2.36" shape="139.34,254.63 170.66,241.50"/>
        <lane id=":236_5_1" index="1" disallow="pedestrian tram rail_urban rail rail_electric rail_fast ship" speed="8.60" length="33.96" width="3.76" shape="140.45,257.27 171.84,244.32"/>
    </edge>
    <edge id=":236_7" function="internal">
        <lane id=":236_7_0" index="0" disallow="pedestrian tram rail_urban rail rail_electric rail_fast ship" speed="8.60" length="26.79" width="3.20" shape="140.45,257.27 148.66,254.72 155.27,254.66 160.30,257.09 163.74,262.01"/>
    </edge>
    <edge id=":257_0" function="internal">
        <lane id=":257_0_0" index="0" disallow="pedestrian tram rail_urban rail rail_electric rail_fast ship" speed="8.60" length="10.11" width="3.20" shape="240.70,455.85 239.95,453.01 240.09,450.90 240.22,448.78 239.46,445.95"/>
    </edge>
    <edge id=":257_1" function="internal">
        <lane id=":257_1_0" index="0" disallow="pedestrian tram rail_urban rail rail_electric rail_fast ship" speed="8.60" length="9.83" width="2.69" shape="242.40,444.67 243.92,447.18 245.47,448.58 247.03,449.99 248.53,452.50"/>
        <lane id=":257_1_1" index="1" disallow="pedestrian tram rail_urban rail rail_electric rail_fast ship" speed="8.60" length="9.83" width="2.78" shape="242.40,444.67 246.02,453.57"/>
    </edge>
    <edge id=":272_0" function="internal">
        <lane id=":272_0_0" index="0" allow="emergency authority" speed="8.60" length="25.65" width="1.50" shape="415.98,333.92 406.01,310.32"/>
        <lane id=":272_0_1" index="1" disallow="pedestrian tram rail_urban rail rail_electric rail_fast ship" speed="8.60" length="25.65" width="3.20" shape="418.24,332.97 408.15,309.36"/>
    </edge>
    <edge id=":272_2" function="internal">
        <lane id=":272_2_0" index="0" disallow="pedestrian tram rail_urban rail rail_electric rail_fast ship" speed="9.80" length="21.17" width="2.75" shape="427.65,311.10 424.27,313.77 422.75,317.81 423.10,323.21 425.31,329.99"/>
    </edge>
    <edge id=":272_3" function="internal">
        <lane id=":272_3_0" index="0" disallow="pedestrian tram rail_urban rail rail_electric rail_fast ship" speed="9.81" length="17.20" width="3.20" shape="427.65,311.10 420.62,313.66 415.02,314.23 411.16,312.89"/>
    </edge>
    <edge id=":272_9" function="internal">
        <lane id=":272_9_0" index="0" disallow="pedestrian tram rail_urban rail rail_electric rail_fast ship" speed="9.81" length="4.69" width="3.20" shape="411.16,312.89 410.87,312.79 408.15,309.36"/>
    </edge>
    <edge id=":272_4" function="internal">
        <lane id=":272_4_0" index="0" allow="emergency authority" speed="8.60" length="25.78" width="1.50" shape="413.21,307.08 423.35,330.82"/>
        <lane id=":272_4_1" index="1" disallow="pedestrian tram rail_urban rail rail_electric rail_fast ship" speed="8.60" length="25.78" width="3.20" shape="411.07,308.04 421.18,331.73"/>
    </edge>
    <edge id=":272_6" function="internal">
        <lane id=":272_6_0" index="0" allow="emergency authority" speed="9.89" length="23.26" width="1.50" shape="405.13,331.17 408.47,328.62 409.74,324.30 408.91,318.20 406.01,310.32"/>
        <lane id=":272_6_1" index="1" disallow="pedestrian tram rail_urban rail rail_electric rail_fast ship" speed="9.89" length="24.98" width="3.20" shape="405.13,331.17 409.43,328.25 411.37,323.64 410.94,317.34 408.15,309.36"/>
    </edge>
    <edge id=":272_8" function="internal">
        <lane id=":272_8_0" index="0" disallow="pedestrian tram rail_urban rail rail_electric rail_fast ship" speed="8.96" length="17.47" width="3.20" shape="405.13,331.17 411.25,329.27 415.96,328.73 419.28,329.55 421.18,331.73"/>
    </edge>
    <edge id=":29.21_0" function="internal">
        <lane id=":29.21_0_0" index="0" disallow="pedestrian tram rail_urban rail rail_electric rail_fast ship" speed="8.60" length="0.30" width="2.19" shape="76.99,559.97 76.75,560.07"/>
        <lane id=":29.21_0_1" index="1" disallow="all" speed="8.60" length="0.30" width="0.58" shape="76.46,558.69 76.21,558.79"/>
        <lane id=":29.21_0_2" index="2" disallow="pedestrian tram rail_urban rail rail_electric rail_fast ship" speed="8.60" length="0.30" width="2.34" shape="75.90,557.34 75.64,557.45"/>
        <lane id=":29.21_0_3" index="3" disallow="pedestrian tram rail_urban rail rail_electric rail_fast ship" speed="8.60" length="0.30" width="3.81" shape="74.73,554.50 74.44,554.62"/>
        <lane id=":29.21_0_4" index="4" allow="emergency authority" speed="8.60" length="0.30" width="0.12" shape="73.98,552.68 73.67,552.81"/>
    </edge>
    <edge id=":290_0" function="internal">
        <lane id=":290_0_0" index="0" allow="emergency authority" speed="8.60" length="13.94" width="1.50" shape="378.60,247.67 376.72,243.99 375.14,241.62 373.57,239.25 371.75,235.54"/>
        <lane id=":290_0_1" index="1" disallow="pedestrian tram rail_urban rail rail_electric rail_fast ship" speed="8.60" length="13.94" width="3.25" shape="380.75,246.73 378.88,243.05 377.31,240.69 375.75,238.31 373.93,234.62"/>
    </edge>
    <edge id=":290_2" function="internal">
        <lane id=":290_2_0" index="0" allow="emergency authority" speed="8.60" length="13.75" width="1.50" shape="380.70,231.75 385.82,244.49"/>
        <lane id=":290_2_1" index="1" disallow="pedestrian tram rail_urban rail rail_electric rail_fast ship" speed="8.60" length="13.75" width="3.20" shape="378.53,232.67 383.67,245.43"/>
    </edge>
    <edge id=":30.end_0" function="internal">
        <lane id=":30.end_0_0" index="0" disallow="pedestrian tram rail_urban rail rail_electric rail_fast ship" speed="3.65" length="4.67" width="3.20" shape="101.50,642.58 101.24,644.00 100.67,644.69 99.78,644.64 98.56,643.86"/>
    </edge>
    <edge id=":302_0" function="internal">
        <lane id=":302_0_0" index="0" disallow="pedestrian tram rail_urban rail rail_electric rail_fast ship" speed="8.60" length="23.77" width="2.29" shape="259.54,499.69 256.03,493.82 251.69,490.41 246.53,489.48 240.55,491.02"/>
        <lane id=":302_0_1" index="1" allow="bicycle" speed="8.60" length="26.39" width="2.34" shape="259.77,499.59 255.74,492.56 251.00,488.35 245.55,486.95 239.40,488.37"/>
        <lane id=":302_0_2" index="2" disallow="pedestrian tram rail_urban rail rail_electric rail_fast ship" speed="8.60" length="30.74" width="3.81" shape="261.89,498.67 257.19,490.46 251.67,485.54 245.33,483.90 238.17,485.55"/>
    </edge>
    <edge id=":302_3" function="internal">
        <lane id=":302_3_0" index="0" disallow="pedestrian tram rail_urban rail rail_electric rail_fast ship" speed="8.60" length="35.31" width="2.40" shape="261.89,498.67 245.64,467.29"/>
        <lane id=":302_3_1" index="1" disallow="pedestrian tram rail_urban rail rail_electric rail_fast ship" speed="8.60" length="35.31" width="3.20" shape="261.89,498.67 248.19,466.15"/>
    </edge>
    <edge id=":302_5" function="internal">
        <lane id=":302_5_0" index="0" disallow="pedestrian tram rail_urban rail rail_electric rail_fast ship" speed="8.60" length="19.33" width="2.34" shape="273.83,476.83 268.72,480.03 265.94,484.33 265.51,489.74 266.29,492.39"/>
    </edge>
    <edge id=":302_6" function="internal">
        <lane id=":302_6_0" index="0" disallow="pedestrian tram rail_urban rail rail_electric rail_fast ship" speed="8.60" length="36.18" width="2.29" shape="273.83,476.83 240.55,491.02"/>
    </edge>
    <edge id=":302_7" function="internal">
        <lane id=":302_7_0" index="0" allow="bicycle" speed="8.60" length="3.24" width="2.34" shape="272.82,474.42 270.11,476.21"/>
    </edge>
    <edge id=":302_8" function="internal">
        <lane id=":302_8_0" index="0" allow="bicycle" speed="8.60" length="36.25" width="2.34" shape="272.82,474.42 239.40,488.37"/>
        <lane id=":302_8_1" index="1" disallow="pedestrian tram rail_urban rail rail_electric rail_fast ship" speed="8.60" length="36.25" width="3.81" shape="271.63,471.59 238.17,485.55"/>
        <lane id=":302_8_2" index="2" disallow="pedestrian tram rail_urban rail rail_electric rail_fast ship" speed="8.60" length="36.25" width="2.07" shape="270.50,468.90 237.00,482.85"/>
    </edge>
    <edge id=":302_11" function="internal">
        <lane id=":302_11_0" index="0" disallow="pedestrian tram rail_urban rail rail_electric rail_fast ship" speed="8.60" length="25.02" width="3.20" shape="270.50,468.90 262.45,471.52 256.05,471.94 251.30,470.14 248.19,466.15"/>
    </edge>
    <edge id=":302_15" function="internal">
        <lane id=":302_15_0" index="0" disallow="pedestrian tram rail_urban rail rail_electric rail_fast ship" speed="8.60" length="4.03" width="2.34" shape="266.29,492.39 267.42,496.26"/>
    </edge>
    <edge id=":302_16" function="internal">
        <lane id=":302_16_0" index="0" allow="bicycle" speed="8.60" length="22.34" width="2.34" shape="270.11,476.21 267.75,477.77 265.16,482.53 265.05,488.69 267.42,496.26"/>
    </edge>
    <edge id=":302_12" function="internal">
        <lane id=":302_12_0" index="0" disallow="pedestrian tram rail_urban rail rail_electric rail_fast ship" speed="8.60" length="35.33" width="2.34" shape="253.42,463.81 267.42,496.26"/>
        <lane id=":302_12_1" index="1" disallow="pedestrian tram rail_urban rail rail_electric rail_fast ship" speed="8.60" length="35.33" width="3.22" shape="250.92,464.92 264.88,497.37"/>
    </edge>
    <edge id=":302_14" function="internal">
        <lane id=":302_14_0" index="0" disallow="pedestrian tram rail_urban rail rail_electric rail_fast ship" speed="8.60" length="25.30" width="2.07" shape="250.92,464.92 251.72,469.78 249.67,474.38 244.76,478.74 237.00,482.85"/>
    </edge>
    <edge id=":302_c0" function="crossing" crossingEdges="-50 50">
        <lane id=":302_c0_0" index="0" allow="pedestrian" speed="2.78" length="10.69" width="4.00" shape="267.70,493.96 257.90,498.23"/>
    </edge>
    <edge id=":302_w0" function="walkingarea">
        <lane id=":302_w0_0" index="0" allow="pedestrian" speed="2.78" length="12.51" width="4.00" shape="241.01,492.07 241.80,493.91 256.86,500.86 258.70,500.06 256.61,496.18 254.18,493.32 251.40,491.48 248.28,490.65 244.82,490.85"/>
    </edge>
    <edge id=":302_w1" function="walkingarea">
        <lane id=":302_w1_0" index="0" allow="pedestrian" speed="2.78" length="11.96" width="4.00" shape="277.180959,494.565290 275.692142,490.493831 277.211343,486.726211 279.064769,483.596657 283.683141,483.080128 285.323878,484.660098 285.384646,488.366949 284.533893,492.742249 280.219362,495.233739 278.092480,495.233739 277.180959,494.565290"/>
    </edge>
    <edge id=":324_0" function="internal">
        <lane id=":324_0_0" index="0" disallow="pedestrian tram rail_urban rail rail_electric rail_fast ship" speed="8.46" length="16.71" width="2.87" shape="313.43,454.02 309.30,456.73 307.21,459.73 305.12,462.73 300.98,465.43"/>