<?xml version="1.0" encoding="UTF-8"?>

<!-- generated on 2024-03-20 14:49:08 by Eclipse SUMO netedit Version 1.19.0
-->

<routes xmlns:xsi="http://www.w3.org/2001/XMLSchema-instance" xsi:noNamespaceSchemaLocation="http://sumo.dlr.de/xsd/routes_file.xsd">
    <!-- VTypes -->
    <vType id="egoBike" vClass="passenger"/>
    <vType id="t_0" vClass="bus"/>
    <!-- Vehicles, persons and containers (sorted by depart) -->
    <route id="Bikerroute" edges="41 -32"/>
    <vehicle depart="0" id="bike1" route="Bikerroute" type="egoBike"/>
    <flow id="f_0" begin="0.00" from="41" to="-31" end="3600.00" vehsPerHour="100"/>
    <flow id="f_1" begin="0.00" from="31" to="-41" end="3600.00" vehsPerHour="100"/>
    <flow id="f_10" begin="0.00" from="-73" to="-68" end="3600.00" vehsPerHour="100"/>
    <flow id="f_12" type="DEFAULT_BIKETYPE" begin="0.00" from="41" to="-31" end="3600.00" vehsPerHour="100"/>
    <flow id="f_13" type="DEFAULT_BIKETYPE" begin="0.00" from="31" to="-41" end="3600.00" vehsPerHour="100"/>
    <flow id="f_14" type="DEFAULT_BIKETYPE" begin="0.00" from="-73" to="-68" end="3600.00" vehsPerHour="100"/>
    <flow id="f_15" type="DEFAULT_BIKETYPE" begin="0.00" from="-71#1" to="-23" end="3600.00" vehsPerHour="100"/>
    <flow id="f_16" type="DEFAULT_TAXITYPE" begin="0.00" from="-21" to="-31" end="3600.00" vehsPerHour="100"/>
    <flow id="f_2" begin="0.00" from="-21" to="-40" end="3600.00" vehsPerHour="100"/>
    <flow id="f_3" begin="0.00" from="-73" to="-68" end="3600.00" vehsPerHour="100"/>
    <flow id="f_4" begin="0.00" from="-21" to="-41" end="3600.00" vehsPerHour="100"/>
    <flow id="f_5" begin="0.00" from="-21" to="-31" end="3600.00" vehsPerHour="100"/>
    <flow id="f_6" begin="0.00" from="-71#1" to="-23" end="3600.00" vehsPerHour="100"/>
    <flow id="f_7" type="DEFAULT_BIKETYPE" begin="0.00" from="28" to="-41" end="3600.00" vehsPerHour="50"/>
    <flow id="f_8" type="t_0" begin="0.00" from="41" to="-31" end="3600.00" vehsPerHour="50"/>
    <flow id="f_9" begin="0.00" from="58" to="71#1" end="3600.00" vehsPerHour="100"/>
</routes>
