<?xml version="1.0" encoding="UTF-8"?>

<!-- generated on 2023-11-24 14:15:59 by Eclipse SUMO netedit Version 1.18.0
-->

<routes xmlns:xsi="http://www.w3.org/2001/XMLSchema-instance" xsi:noNamespaceSchemaLocation="http://sumo.dlr.de/xsd/routes_file.xsd">
    <!-- Vehicles, persons and containers (sorted by depart) -->
    <trip id="t_1" type="DEFAULT_BIKETYPE" depart="0.00" from="28" to="-41"/>
</routes>
