<?xml version="1.0" encoding="UTF-8"?>

<!-- generated on 2024-12-02 16:41:36 by Eclipse SUMO netedit Version 1.17.0
-->

<routes xmlns:xsi="http://www.w3.org/2001/XMLSchema-instance" xsi:noNamespaceSchemaLocation="http://sumo.dlr.de/xsd/routes_file.xsd">
    <!-- VTypes -->
    <vType id="DEFAULT_RAILTYPE" vClass="bus"/>
    <vType id="type1" length="5.00" minGap="3.00" maxSpeed="70.00" vClass="bicycle" width="1.80" latAlignment="arbitrary" accel="10" decel="10" sigma="0.5"/>
    <!-- Routes -->
    <route id="r_0" edges="269 248 111 251 -40 -193"/>
    <!-- Vehicles, persons and containers (sorted by depart) -->
    <vehicle id="bike1" type="type1" depart="0.00" departPos="0.00" insertionChecks="none">
        <route edges="-38"/>
    </vehicle>
    <flow id="f_0" type="DEFAULT_BIKETYPE" begin="0.00" route="r_0" end="3600.00" vehsPerHour="50.00"/>
    <flow id="f_1" begin="0.00" route="r_0" end="3600.00" vehsPerHour="50.00"/>
    <flow id="f_2" type="DEFAULT_RAILTYPE" begin="0.00" route="r_0" end="3600.00" vehsPerHour="50.00"/>
    <flow id="f_3" type="DEFAULT_TAXITYPE" begin="0.00" route="r_0" end="3600.00" vehsPerHour="50.00"/>
</routes>
