<?xml version="1.0" encoding="UTF-8"?>

<!-- generated on 2025-02-17 13:57:25 by Eclipse SUMO netedit Version 1.22.0
-->

<routes xmlns:xsi="http://www.w3.org/2001/XMLSchema-instance" xsi:noNamespaceSchemaLocation="http://sumo.dlr.de/xsd/routes_file.xsd">
    <!-- VTypes -->
    <vType id="DEFAULT_PEDTYPE" vClass="pedestrian">
        <param key="has.driverstate.device" value="true"/>
        <param key="model" value="striping"/>
        <param key="striping.stripeAngle" value="90"/>
        <param key="striping.stripeSpacing" value="0.8"/>
        <param key="striping.stripeWidth" value="0.5"/>
    </vType>
    <vType id="DEFAULT_RAILTYPE" vClass="bus"/>
    <vType id="bus_type" vClass="bus"/>
    <vType id="type1" length="5.00" minGap="3.00" maxSpeed="70.00" vClass="bicycle" width="1.80" latAlignment="arbitrary" accel="10" decel="10" sigma="0.5"/>
    <!-- Vehicles, persons and containers (sorted by depart) -->
    <vehicle id="bike1" type="type1" depart="0.00" departPos="0.00" insertionChecks="none">
        <route edges="-38"/>
    </vehicle>
    <flow id="f_0" begin="0.00" from="-23" to="-36" end="3600.00" vehsPerHour="300"/>
    <flow id="f_1" begin="0.00" from="-103" to="-162" end="3600.00" vehsPerHour="300"/>
    <flow id="f_2" begin="0.00" from="54" to="00" end="3600.00" vehsPerHour="300"/>
    <flow id="f_3" begin="0.00" from="-0" to="-54" end="3600.00" vehsPerHour="300"/>
    <flow id="f_4" begin="0.00" from="-94" to="225" end="3600.00" vehsPerHour="300"/>
    <flow id="f_5" begin="0.00" from="-225" to="94" end="3600.00" vehsPerHour="300"/>
    <flow id="f_6" type="bus_type" begin="0.00" from="45" to="35" end="3600.00" vehsPerHour="1">
        <stop busStop="bs_0" duration="20.00"/>
    </flow>
    <personFlow id="pf_0" begin="0.00" end="3600.00" personsPerHour="200">
        <personTrip from="-29#1" to="-78#2"/>
    </personFlow>
    <personFlow id="pf_1" begin="0.00" end="3600.00" personsPerHour="200">
        <personTrip from="78#2" to="29#1"/>
    </personFlow>
    <personFlow id="pf_2" begin="0.00" end="3600.00" personsPerHour="200">
        <walk from="112" busStop="bs_0"/>
        <ride busStop="bs_0"/>
    </personFlow>
	<personFlow id="pf_3" begin="0.00" end="3600.00" personsPerHour="1000">
		<walk from="-245" busStop="bs_0"/>
        <ride busStop="bs_0"/>
    </personFlow>
</routes>
