<?xml version="1.0" encoding="UTF-8"?>

<!-- generated on 2025-02-06 16:53:48 by Eclipse SUMO netedit Version 1.21.0
-->

<routes xmlns:xsi="http://www.w3.org/2001/XMLSchema-instance" xsi:noNamespaceSchemaLocation="http://sumo.dlr.de/xsd/routes_file.xsd">
    <!-- VTypes -->
    <vType id="DEFAULT_RAILTYPE" vClass="bus"/>
    <vType id="type1" length="5.00" minGap="3.00" maxSpeed="70.00" vClass="bicycle" width="1.80" latAlignment="arbitrary" accel="10" decel="10" sigma="0.5"/>
    <!-- Vehicles, persons and containers (sorted by depart) -->
    <vehicle id="bike1" type="type1" depart="0.00" departPos="0.00" insertionChecks="none">
        <route edges="-38"/>
    </vehicle>
    <flow id="f_0" begin="0.00" from="-23" to="-36" end="3600.00" vehsPerHour="300"/>
    <flow id="f_1" begin="0.00" from="-103" to="-162" end="3600.00" vehsPerHour="300"/>
    <flow id="f_2" begin="0.00" from="54" to="00" end="3600.00" vehsPerHour="300"/>
    <flow id="f_3" begin="0.00" from="-0" to="-54" end="3600.00" vehsPerHour="300"/>
    <flow id="f_4" begin="0.00" from="-94" to="225" end="3600.00" vehsPerHour="300"/>
    <flow id="f_5" begin="0.00" from="-225" to="94" end="3600.00" vehsPerHour="300"/>
    <personFlow id="pf_0" begin="0.00" end="3600.00" personsPerHour="200">
        <personTrip from="-29#1" to="-78#2"/>
    </personFlow>
    <personFlow id="pf_1" begin="0.00" end="3600.00" personsPerHour="200">
        <personTrip from="78#2" to="29#1"/>
    </personFlow>
</routes>
