<?xml version="1.0" encoding="UTF-8"?>

<!-- generated on 2024-08-04 18:27:22 by Eclipse SUMO netedit Version 1.18.0
-->

<routes xmlns:xsi="http://www.w3.org/2001/XMLSchema-instance" xsi:noNamespaceSchemaLocation="http://sumo.dlr.de/xsd/routes_file.xsd">
    <!-- VTypes -->
    <vType id="DEFAULT_BIKETYPE" latAlignment="left"/>
    <vType id="DEFAULT_VEHTYPE" maxSpeed="5.56"/>
    <!-- Vehicles, persons and containers (sorted by depart) -->
    <flow id="f_0" type="DEFAULT_BIKETYPE" begin="0.00" from="44" to="35" end="3600.00" vehsPerHour="300.00"/>
</routes>
