<?xml version="1.0" encoding="UTF-8"?>

<!-- generated on 2024-07-25 09:41:36 by Eclipse SUMO netedit Version 1.18.0
-->

<routes xmlns:xsi="http://www.w3.org/2001/XMLSchema-instance" xsi:noNamespaceSchemaLocation="http://sumo.dlr.de/xsd/routes_file.xsd">
    <!-- Vehicles, persons and containers (sorted by depart) -->
    <vehicle id="0" depart="0.00">
        <route edges="-92 -275 -25 -0 -103 -130 -68 -71#0 -71#1 -113"/>
    </vehicle>
    <vehicle id="1" depart="3.00">
        <route edges="-222 -97 -204 238 28 312 -160 -245#0 -245#1 -245#2 -245#3 -245#4 202 49#2 49#1 49#0 302#7 302#6 302#4 302#3 302#2 302#1 302#0 163 182#17 182#16 182#15 182#14 182#13 182#12 182#11 182#10 182#9 182#8 182#7 182#6 182#5 182#4 182#3 182#2 182#1 182#0 -182#0 -182#1 -182#2 -182#3 -182#4 -182#5 -182#6 -182#7 -182#8 -182#9"/>
    </vehicle>
    <vehicle id="2" depart="6.00">
        <route edges="182#13 182#12 182#11 182#10 182#9 182#8 182#7 182#6 182#5 182#4 182#3 182#2 182#1 182#0 -182#0 -182#1 -182#2 -182#3 -182#4 -182#5 -182#6 -182#7 -182#8 -182#9 -182#10 -182#11 -182#12 -182#13 -182#14 -182#15 -182#16 -182#17 -262#0 -262#1 -262#2 -262#3 -6#0 -6#1 -6#2 -6#3 -6#4 -6#5 -6#6 -6#7 -6#8 -6#9 -6#10 -6#11 -6#12 -6#13 -6#14 -6#15 -6#16 -6#17 -63#0 -63#1 -132 -300 -41 -102 -267 -148 -86 -114#0 -114#1 -239#0 -239#1 -239#2 -268 -295 -166#0 -166#1 -166#2 -166#3 -166#4 -166#5 -166#6 -166#7 -166#8 -166#9 -166#10 -29#0 -29#1 -29#2 -29#3 -29#4 -29#5 -77#0 -77#1 -77#2 261 154 111"/>
    </vehicle>
    <vehicle id="3" depart="9.00">
        <route edges="296 178#2 178#1 178#0 106#2 106#1 106#0 276 89 205 -300 -41 -102 -267 -148 -86 -114#0 -114#1 -239#0 -239#1 -239#2 -268 -295 -166#0 -166#1 -166#2 -166#3 -166#4 -166#5 -166#6 -166#7 -166#8 -166#9 -166#10 -29#0 -29#1 -29#2 -29#3 -29#4 -29#5 -77#0 -77#1 -77#2 261 154 111 -98 -298 -244 -229 76 234 118 57 255 258 -133#0 -133#1 -133#2 -133#3 -133#4 -133#5 -133#6"/>
    </vehicle>
    <vehicle id="4" depart="12.00">
        <route edges="-280#0 -280#1 -280#2 -280#3 -280#4 -280#5 -280#6 -125#0 -125#1 -158 207 289 24 83 230 -199 215 250#2 250#1 250#0 48 156 -114#0"/>
    </vehicle>
    <vehicle id="5" depart="15.00">
        <route edges="-182#8 -182#9 -182#10 -182#11 -182#12 -182#13 -182#14 -182#15 -182#16 -182#17 -262#0 -262#1 -262#2 -262#3 -6#0 -6#1 -6#2 -6#3 -6#4 -6#5 -6#6 -6#7 -6#8 -6#9 -6#10 -6#11 -6#12 -6#13 -6#14 -6#15 -6#16 -6#17 -63#0 -63#1 -132 152 99 112 257 -221 -222 -97 -204 238 28 312 288 254 -235 -181 -256 -315 -40"/>
    </vehicle>
    <vehicle id="6" depart="18.00">
        <route edges="-112 -99 -152 -205 -89 -276 -106#0 -106#1 -106#2 -178#0 -178#1 -178#2 -296 -70 70 296 178#2 178#1 178#0 106#2 106#1 106#0 276 89 205 152 99 112 257 -221 -222 -97 -204 238 28 312 -160 -245#0 -245#1 -245#2 -245#3 -245#4 202 49#2 49#1 49#0 302#7 302#6 302#4 302#3 302#2 302#1 302#0 163 182#17 182#16 182#15 182#14 182#13 182#12 182#11 182#10 182#9 182#8 182#7 182#6 182#5 182#4 182#3 182#2 182#1 182#0 -182#0 -182#1 -182#2 -182#3 -182#4 -182#5 -182#6 -182#7 -182#8 -182#9 -182#10 -182#11 -182#12 -182#13 -182#14 -182#15"/>
    </vehicle>
    <vehicle id="7" depart="21.00">
        <route edges="-97 -204 238 28 312 -160 -245#0 -245#1 -245#2 -245#3 -245#4 202 49#2 49#1 49#0 302#7 302#6 302#4 302#3 302#2 302#1 302#0 163 -262#0 -262#1 -262#2 -262#3 -6#0"/>
    </vehicle>
    <vehicle id="8" depart="24.00">
        <route edges="-182#9 -182#10 -182#11 -182#12 -182#13 -182#14 -182#15 -182#16 -182#17 -262#0 -262#1 -262#2 -262#3 -6#0 -6#1 -6#2 -6#3 -6#4 -6#5 -6#6 -6#7 -6#8 -6#9 -6#10 -6#11 -6#12 -6#13 -6#14 -6#15 -6#16 -6#17 -63#0 -63#1 -132 152 99 112 257 -221 -222 -97 -204 238 28 312 288 254 -235 -181 -256 -315 -40 -313 -210#0 -210#1 -210#2 -292 -200 -301 -46 -58 -60"/>
    </vehicle>
    <vehicle id="9" depart="27.00">
        <route edges="227 -225 -203 -95 -236#0 -236#1 -53 53 236#1 236#0 95 203 225 -227 -233 -151 226 68 130 103 0 -153 -2 -87 -92 -39 -293 -59 -270 -116 -27 -101"/>
    </vehicle>
    <vehicle id="10" depart="30.00">
        <route edges="225 -227 -233 -151 226 68 130 103 0 -153 273 -273 153 -0 -103 -130 -68 -226 151"/>
    </vehicle>
    <vehicle id="11" depart="33.00">
        <route edges="-245#3 -245#4 202 49#2 49#1 49#0 302#7 302#6 302#4 302#3 302#2 302#1 302#0 163 -262#0 -262#1 -262#2 -262#3 -6#0 -6#1 -6#2 -6#3 -6#4 -6#5 -6#6 -6#7 -6#8 -6#9 -6#10 -6#11 -6#12 -6#13 -6#14 -6#15 -6#16 -6#17 -63#0 -63#1 -132 -300 -41 -102 -267 -148 -86 -114#0 -114#1 -239#0 -239#1 -239#2 -268 -295 -166#0 -166#1 -166#2 -166#3 -166#4"/>
    </vehicle>
    <vehicle id="12" depart="36.00">
        <route edges="55 155 -67 -310 -105 -243 -155 -55 -254 -288 -160 -245#0 -245#1 -245#2 -245#3"/>
    </vehicle>
    <vehicle id="13" depart="39.00">
        <route edges="-133#9 -164#0 -164#1 -94 -130 -68 -226 151 233 227 -225 -203 -95 -166#0 -166#1 -166#2 -166#3 -166#4 -166#5 -166#6 -166#7 -166#8 -166#9 -166#10 -29#0 -29#1 -29#2 -29#3 -29#4 -29#5 -77#0 -77#1 -77#2 -274 -122 -269 -26 -54 90 43 69 -271 -206 -297 -37 -65 -214 -144#0"/>
    </vehicle>
    <vehicle id="14" depart="42.00">
        <route edges="254 55 155 -67 159 232 101 27 116 270 59 293 39 -275 -25 -0 -103 -120#0 -120#1 -117 -277 -61 -280#0 -280#1 -280#2 -280#3 -280#4 -280#5 -280#6 -125#0 -125#1 -158 -279 5 -66"/>
    </vehicle>
    <vehicle id="15" depart="45.00">
        <route edges="226 68 130 -120#0 -120#1 -117 -277 -61 -280#0 -280#1 -280#2 -280#3 -280#4 -280#5 -280#6 -125#0 -125#1 -158 -279 5 -66 -266 -314 -127 -38 -36 -129 -216 -160 -245#0 -245#1 -245#2 -245#3 -245#4 202 49#2 49#1 49#0 302#7 302#6 302#4 302#3 302#2 302#1 302#0 163 182#17 182#16 182#15 182#14 182#13 182#12 182#11 182#10 182#9 182#8 182#7 182#6 182#5 182#4 182#3 182#2 182#1"/>
    </vehicle>
    <vehicle id="16" depart="48.00">
        <route edges="-56 -147 106#2 106#1 106#0 276 89 205 -300 -41 -102 -267 -148 -86 -114#0 -114#1 -239#0 -239#1 -239#2 -268 -295 -166#0 -166#1 -166#2 -166#3 -166#4 -166#5 -166#6 -166#7 -166#8 -166#9 -166#10 -29#0 -29#1 -29#2 -29#3 -29#4 -29#5 -77#0 -77#1 -77#2 -274 -122 -269 -26 -54 90 43 69"/>
    </vehicle>
    <vehicle id="17" depart="51.00">
        <route edges="-262#1 -262#2 -262#3 -6#0 -6#1 -6#2 -6#3 -6#4 -6#5 -6#6 -6#7 -6#8 -6#9 -6#10 -6#11"/>
    </vehicle>
    <vehicle id="18" depart="54.00">
        <route edges="236#1 236#0 -166#0 -166#1 -166#2 -166#3 -166#4 -166#5 -166#6 -166#7 -166#8 -166#9 -166#10 -29#0 -29#1 -29#2 -29#3 -29#4 -29#5 -77#0 -77#1 -77#2 261 154 111 -98 -298 -244 -229 76 234 118 57 255 258 35 -35 -258 -255 -57 -118 -234 -76"/>
    </vehicle>
    <vehicle id="19" depart="57.00">
        <route edges="261 154 111 -98 -298 -244 -229 76 234 118 57 255 258 -133#0 -133#1 -133#2 -133#3 -133#4 -133#5 -133#6 -133#7 -133#8 -133#9 -164#0 -164#1 -94 -120#0 -120#1 -117 -277 -61 -280#0 -280#1 -280#2 -280#3 -280#4 -280#5 -280#6 -125#0 -125#1 -158 -279 5 -66 -266 -314 -127 -38 -36 -129 -216 -160 -245#0 -245#1 -245#2 -245#3 -245#4 202 49#2 49#1 49#0 302#7 302#6 302#4 302#3 302#2 302#1 302#0 163 -262#0 -262#1 -262#2 -262#3 -6#0 -6#1 -6#2 -6#3 -6#4 -6#5"/>
    </vehicle>
    <vehicle id="20" depart="60.00">
        <route edges="155 -67 159 232 101 27 116 270 59 293 39 -275 -25 -0 -103 -120#0 -120#1"/>
    </vehicle>
    <vehicle id="21" depart="63.00">
        <route edges="-200 -301 -46 -58 -60 119 299 157 -208 208 202 49#2 49#1 49#0 302#7 302#6 302#4 302#3 302#2 302#1 302#0 163 -262#0 -262#1 -262#2 -262#3 -6#0 -6#1 -6#2 -6#3 -6#4 -6#5 -6#6 -6#7 -6#8 -6#9 -6#10 -6#11 -6#12 -6#13 -6#14 -6#15 -6#16 -6#17 -63#0 -63#1 -132 -300 -41 -102 -267 -148 -86 -114#0 -114#1 -239#0 -239#1 -239#2 -268 -295 -166#0 -166#1 -166#2 -166#3 -166#4 -166#5 -166#6 -166#7 -166#8 -166#9 -166#10 -29#0 -29#1 -29#2 -29#3 -29#4 -29#5 -77#0 -77#1 -77#2 261 154 111 -98 -298 -244 -229"/>
    </vehicle>
    <vehicle id="22" depart="66.00">
        <route edges="-133#4 -133#5 -133#6 -133#7 -133#8 -133#9 -164#0 -164#1 -94 -130 -68 -226 151 233 227 -225 -203 -95 -236#0 -236#1 -217#0 -217#1 -217#2 -253 -259 -201"/>
    </vehicle>
    <vehicle id="23" depart="69.00">
        <route edges="-144#2 -144#3 -217#0 -217#1 -217#2 -253 -52 -220 -290#0 -290#1 -56 -147 106#2 106#1 106#0 276 89 205 152 99 112 257 -221"/>
    </vehicle>
    <vehicle id="24" depart="72.00">
        <route edges="-89 -276 -106#0 -106#1 -106#2 -178#0 -178#1 -178#2 -296 -70 70 296 178#2 178#1 178#0 106#2 106#1 106#0 276 89 205 -300 -41 -102 -267 -148 -86 201 259 224 -224 -259"/>
    </vehicle>
    <vehicle id="25" depart="75.00">
        <route edges="-259 -201 -114#0 -114#1 -239#0 -239#1 -239#2 -268 -295 -236#0 -236#1 -217#0 -217#1 -217#2 -253 -52 -220 -290#0 -290#1 -56 -147 106#2 106#1 106#0 276 89 205 152 99 112 257 -221 -222 -97 -204 238 28 312 -160 -245#0 -245#1 -245#2 -245#3 -245#4 202 49#2 49#1 49#0 302#7 302#6 302#4 302#3 302#2 302#1 302#0 163 182#17 182#16 182#15 182#14 182#13 182#12 182#11 182#10 182#9 182#8 182#7 182#6 182#5 182#4 182#3 182#2 182#1 182#0 -182#0 -182#1 -182#2 -182#3 -182#4"/>
    </vehicle>
    <vehicle id="26" depart="78.00">
        <route edges="-217#2 -253 -52 -220 -290#0 -290#1 -56 -147 106#2 106#1 106#0 276 89 205 152 99 112 257 -221 -222 -97 -204 238 28 312 288 254 55 155 -67 159 232 101 27 116 270 59 293 39"/>
    </vehicle>
    <vehicle id="27" depart="81.00">
        <route edges="-95 -166#0 -166#1 -166#2 -166#3 -166#4 -166#5 -166#6 -166#7 -166#8 -166#9 -166#10 -29#0 -29#1 -29#2 -29#3 -29#4 -29#5 -77#0 -77#1 -77#2 -274 -122 -269 -26 -54 90 43 69 -271 -206 -297 -37 -65 -214 -44 44 214 65 37 297 206 271 -69"/>
    </vehicle>
    <vehicle id="28" depart="84.00">
        <route edges="-178#1 -178#2 -296 -70 70 296 178#2 178#1 178#0 106#2 106#1 106#0 276 89 205 152 99 112 257 -221 -222 -97 -204 238 28 312 -160 -245#0 -245#1 -245#2 -245#3 -245#4 202 49#2 49#1 49#0 302#7 302#6 302#4 302#3 302#2 302#1 302#0 163 182#17 182#16 182#15 182#14 182#13 182#12 182#11 182#10 182#9 182#8 182#7 182#6 182#5 182#4 182#3 182#2 182#1"/>
    </vehicle>
    <vehicle id="29" depart="87.00">
        <route edges="-166#8 -166#9 -166#10 -29#0 -29#1 -29#2 -29#3 -29#4 -29#5 -77#0 -77#1 -77#2 261 154 111 -98 -298 -244 -229 76 234 118 57 255 258 -133#0 -133#1 -133#2 -133#3 -133#4 -133#5 -133#6 -133#7 -133#8 -133#9 -164#0 -164#1 -94 -120#0 -120#1 -117 -277 -61 -280#0 -280#1 -280#2 -280#3 -280#4 -280#5 -280#6 -125#0 -125#1 -158 -279 5 -66 -266 -314 -127 -38 -36 -129 -216 -160 -245#0 -245#1 -245#2 -245#3 -245#4 202 49#2 49#1 49#0 302#7 302#6 302#4 302#3 302#2 302#1 302#0 163 -262#0 -262#1 -262#2 -262#3"/>
    </vehicle>
    <vehicle id="30" depart="90.00">
        <route edges="93 88 -293 -59 -270 -116 -27 -101 -232 -159 -310 -105 -243 -155 -55 -254 -288 -312 -28 -238 204 97 222 221 -257 -112 -99 -152 -205 -89"/>
    </vehicle>
    <vehicle id="31" depart="93.00">
        <route edges="-6#12 -6#13 -6#14 -6#15 -6#16 -6#17 -63#0 -63#1 -132 -300 -41 -102 -267 -148 -86 -114#0 -114#1 -239#0 -239#1 -239#2 -268 -295 -166#0 -166#1 -166#2 -166#3 -166#4 -166#5 -166#6 -166#7 -166#8 -166#9 -166#10 -29#0 -29#1 -29#2 -29#3 -29#4 -29#5 -77#0 -77#1 -77#2 261 154 111 -98 -298 -244 -229 76 234 118"/>
    </vehicle>
    <vehicle id="32" depart="96.00">
        <route edges="250#1 250#0 48 156 201"/>
    </vehicle>
    <vehicle id="33" depart="99.00">
        <route edges="-201 -114#0 -114#1"/>
    </vehicle>
    <vehicle id="34" depart="102.00">
        <route edges="-236#1 -217#0"/>
    </vehicle>
    <vehicle id="35" depart="105.00">
        <route edges="-182#5 -182#6 -182#7 -182#8 -182#9 -182#10 -182#11 -182#12 -182#13 -182#14 -182#15 -182#16 -182#17 -262#0 -262#1 -262#2 -262#3 -6#0 -6#1 -6#2 -6#3 -6#4 -6#5 -6#6 -6#7 -6#8 -6#9 -6#10 -6#11 -6#12 -6#13 -6#14 -6#15 -6#16 -6#17 -63#0 -63#1 -132 152 99 112 257 -221 -222 -97 -204 238 28 312 288 254 55 155 -67 159 232 101 27 116 270 59 293 47"/>
    </vehicle>
    <vehicle id="36" depart="108.00">
        <route edges="276 89 205 -300 -41 -102 -267 -148 -86 -114#0 -114#1 -239#0"/>
    </vehicle>
    <vehicle id="37" depart="111.00">
        <route edges="-99 -152 -205 -89 -276 -106#0 -106#1 -106#2 -178#0 -178#1 -178#2 -296 -70 70 296 178#2 178#1 178#0 106#2 106#1 106#0 276 89 205 152 99 112 257 -221 -222 -97 -204 238 28 312 288 254 55 155 -67 159 232 101 27 116 270 59 293 47 223 -223 -47 -293 -59 -270"/>
    </vehicle>
    <vehicle id="38" depart="114.00">
        <route edges="302#6 302#4 302#3 302#2 302#1 302#0 163 -262#0 -262#1 -262#2 -262#3 -6#0 -6#1 -6#2 -6#3 -6#4 -6#5 -6#6 -6#7 -6#8 -6#9 -6#10 -6#11 -6#12 -6#13 -6#14 -6#15 -6#16 -6#17 -63#0 -63#1 -132 -300 -41 -102 -267 -148 -86 201 259 -52 -220 -290#0 -290#1"/>
    </vehicle>
    <vehicle id="40" depart="120.00">
        <route edges="-6#14 -6#15 -6#16 -6#17 -63#0 -63#1 -132 -300 -41 -102 -267 -148 -86 -156 -48 -250#0 -250#1 -250#2 -215"/>
    </vehicle>
    <vehicle id="41" depart="123.00">
        <route edges="-6#8 -6#9 -6#10 -6#11 -6#12 -6#13 -6#14 -6#15 -6#16 -6#17 -63#0 -63#1 -132 -205 -89 -276 -106#0 -106#1 -106#2 -178#0 -178#1 -178#2 -296 -70 70 296"/>
    </vehicle>
    <vehicle id="42" depart="126.00">
        <route edges="-270 -116 -27 -101 -232 -159 -310 -105 -243 -155 -55 -254 -288 -160 -245#0 -245#1 -245#2 -245#3 -245#4 202 49#2 49#1 49#0 302#7 302#6 302#4 302#3 302#2 302#1 302#0 163 182#17 182#16 182#15 182#14 182#13 182#12 182#11 182#10 182#9 182#8 182#7 182#6 182#5 182#4 182#3 182#2 182#1 182#0 -182#0 -182#1 -182#2 -182#3 -182#4 -182#5 -182#6 -182#7"/>
    </vehicle>
    <vehicle id="43" depart="129.00">
        <route edges="99 112 257 -221 -222 -97 -204 238 28 312 288 254 55 155 -67 159 232 101 27 116 270 59 293 39 -275 -25 -0 -103 -130 -68 -226 151 233 227 -225 -203 -95 -166#0 -166#1 -166#2 -166#3 -166#4 -166#5 -166#6 -166#7 -166#8 -166#9 -166#10 -29#0 -29#1 -29#2 -29#3 -29#4 -29#5 -77#0 -77#1 -77#2 -274 -122 -269 -26 -54 90 43 69 -271 -206 -297 -37 -65 -214 -44 44 214 65 37 297 206 271 -69 -43"/>
    </vehicle>
    <vehicle id="44" depart="132.00">
        <route edges="-133#8 -133#9 -164#0 -164#1 -94 -120#0 -120#1"/>
    </vehicle>
    <vehicle id="45" depart="135.00">
        <route edges="-151 226 68 130 -120#0 -120#1 -117 -277 -61 -280#0 -280#1 -280#2 -280#3 -280#4 -280#5 -280#6 -125#0 -125#1 -158 207 289 24 83 230 -199 215 250#2 250#1 250#0 48 156 -114#0 -114#1 -239#0 -239#1 -239#2 -268 -295 -166#0 -166#1 -166#2 -166#3 -166#4 -166#5 -166#6 -166#7 -166#8 -166#9 -166#10 -29#0 -29#1 -29#2 -29#3 -29#4 -29#5 -77#0 -77#1 -77#2"/>
    </vehicle>
    <vehicle id="46" depart="138.00">
        <route edges="208 202 49#2 49#1 49#0 302#7 302#6 302#4 302#3 302#2 302#1 302#0 163 -262#0 -262#1 -262#2 -262#3 -6#0 -6#1 -6#2 -6#3 -6#4 -6#5 -6#6 -6#7 -6#8 -6#9 -6#10 -6#11 -6#12 -6#13 -6#14 -6#15 -6#16 -6#17 -63#0 -63#1 -132 -300 -41 -102 -267 -148 -86 -114#0 -114#1 -239#0 -239#1 -239#2 -268 -295 -236#0 -236#1 -53 53 236#1 236#0 95 203 225 -227 -233 -151 226 68 130 -120#0 -120#1 -117 -277 -61 -280#0 -280#1 -280#2"/>
    </vehicle>
    <vehicle id="47" depart="141.00">
        <route edges="-129 -216 288 254 55 155 -67 159 232 101 27 116 270 59 293 39 -275 -25 -0 -103 -120#0 -120#1 -117 -277 -61 -280#0 -280#1 -280#2 -280#3 -280#4 -280#5 -280#6 -125#0 -125#1 -158 -279 5 -66 -266"/>
    </vehicle>
    <vehicle id="48" depart="144.00">
        <route edges="98 -111 -154 -261 -274 -122 -269 -26 -54"/>
    </vehicle>
    <vehicle id="49" depart="147.00">
        <route edges="69 -271 -206 -297 -37 -65 -214 -44 44 214 65 37 297 206 271 -69 -43 -90 54 26 269 122 274 261 154 111 -98 -298 -244 -229 76 234 118 57 255 258"/>
    </vehicle>
    <vehicle id="50" depart="150.00">
        <route edges="-102 -267 -148 -86 201 259 -52 -220 -290#0 -290#1 -56 -147 -178#0 -178#1 -178#2 -296 -70 70 296 178#2 178#1"/>
    </vehicle>
    <vehicle id="51" depart="153.00">
        <route edges="119 299 157 -208 208 202 49#2 49#1 49#0 302#7 302#6 302#4 302#3 302#2 302#1 302#0 163 -262#0 -262#1 -262#2 -262#3 -6#0 -6#1 -6#2 -6#3 -6#4 -6#5 -6#6 -6#7 -6#8 -6#9 -6#10 -6#11 -6#12 -6#13 -6#14 -6#15 -6#16 -6#17 -63#0 -63#1 -132 -300 -41 -102 -267 -148 -86 -114#0 -114#1 -239#0 -239#1 -239#2 -268 -295 -166#0 -166#1 -166#2 -166#3 -166#4 -166#5 -166#6 -166#7 -166#8 -166#9 -166#10 -29#0 -29#1 -29#2 -29#3 -29#4 -29#5 -77#0 -77#1 -77#2 261 154 111 -98 -298 -244 -229 76 234 118 57 255 258 35 -35 -258 -255 -57"/>
    </vehicle>
    <vehicle id="52" depart="156.00">
        <route edges="-217#2 -253 -259 -201 -114#0 -114#1 -239#0 -239#1 -239#2 -268 -295 -166#0 -166#1 -166#2 -166#3 -166#4 -166#5 -166#6 -166#7 -166#8 -166#9 -166#10 -29#0 -29#1 -29#2 -29#3 -29#4 -29#5 -77#0 -77#1 -77#2 -274 -122 -269 -26 -54 90 43 69 -271 -206 -297 -37 -65 -214 -44 44 214 65 37 297 206 271 -69 -43 -90"/>
    </vehicle>
    <vehicle id="53" depart="159.00">
        <route edges="-151 226 68 130 103 0 -153 -2 -87 -92 -39 -293 -59 -270 -116 -27 -101 -232 -159 -310 -105 -243 -155 -55 -254 -288"/>
    </vehicle>
    <vehicle id="54" depart="162.00">
        <route edges="-29#4 -29#5 -77#0 -77#1 -77#2 261 154 111 -98 -298 -244 -229 76 234 118 57 255 258 -133#0 -133#1 -133#2 -133#3 -133#4 -133#5 -133#6 -133#7 -133#8 -133#9 -164#0 -164#1 -94 -120#0 -120#1 -117 -277 -61 -280#0 -280#1 -280#2 -280#3 -280#4 -280#5 -280#6 -125#0 -125#1 -158 -279 5 -66 -266 -314 -127 -38 -36 -129 -216 -160 -245#0 -245#1 -245#2 -245#3 -245#4 202 49#2"/>
    </vehicle>
    <vehicle id="55" depart="165.00">
        <route edges="276 89 205 -300 -41 -102 -267 -148 -86 -156 -48 -250#0 -250#1 -250#2 -215"/>
    </vehicle>
    <vehicle id="56" depart="168.00">
        <route edges="-36 -129 -216 -312 -28 -238 204 97 222 221 -257 -112 -99 -152 -205 -89 -276 -106#0 -106#1 -106#2 -178#0 -178#1 -178#2"/>
    </vehicle>
    <vehicle id="57" depart="171.00">
        <route edges="302#4 302#3 302#2 302#1 302#0 163 -262#0 -262#1 -262#2 -262#3 -6#0 -6#1 -6#2 -6#3 -6#4 -6#5 -6#6 -6#7 -6#8 -6#9 -6#10 -6#11 -6#12 -6#13 -6#14 -6#15 -6#16 -6#17 -63#0 -63#1 -132 -300 -41 -102 -267 -148 -86 -114#0 -114#1 -239#0 -239#1 -239#2 -268 -295 -166#0 -166#1 -166#2 -166#3 -166#4 -166#5 -166#6 -166#7 -166#8 -166#9 -166#10 -29#0 -29#1 -29#2 -29#3 -29#4 -29#5 -77#0 -77#1 -77#2 -274 -122 -269 -26 -54 90 43 69 -271 -206 -297 -37 -65 -214 -44 44 214 65 37 297 206 271 -69 -43 -90 54 26 269"/>
    </vehicle>
    <vehicle id="59" depart="177.00">
        <route edges="-69 -43 -90 54 26 269 122 274 261 154 111 -98 -298 -244 -229 76 234 118 57 255 258 -133#0 -133#1 -133#2 -133#3 -133#4 -133#5 -133#6 -133#7 -133#8 -133#9 -164#0 -164#1 -94 -130 -68 -226 151 233 227 -225 -203 -95 -166#0 -166#1 -166#2 -166#3"/>
    </vehicle>
    <vehicle id="60" depart="180.00">
        <route edges="182#7 182#6 182#5 182#4 182#3 182#2 182#1 182#0 -182#0 -182#1 -182#2 -182#3 -182#4 -182#5 -182#6 -182#7 -182#8 -182#9 -182#10 -182#11 -182#12 -182#13 -182#14 -182#15 -182#16 -182#17 -262#0 -262#1 -262#2 -262#3 -6#0 -6#1 -6#2 -6#3 -6#4 -6#5 -6#6 -6#7 -6#8 -6#9 -6#10 -6#11 -6#12 -6#13 -6#14 -6#15 -6#16 -6#17 -63#0 -63#1 -132 152 99 112 257 -221 -222 -97 -204 238 28 312 288 254 -235 -181 -256 -315 -40 -313 -210#0 -210#1 -210#2 -292 -200 -301 -46 -58"/>
    </vehicle>
    <vehicle id="61" depart="183.00">
        <route edges="203 225 -227 -233 -151 226 68 130 -120#0 -120#1 -117 -277 -61 -280#0 -280#1 -280#2 -280#3 -280#4 -280#5 -280#6 -125#0 -125#1 -158 207 289 24 83 230 -199 215 250#2 250#1 250#0 48 156 -114#0 -114#1 -239#0 -239#1 -239#2 -268 -295 -166#0 -166#1 -166#2 -166#3 -166#4 -166#5 -166#6 -166#7 -166#8 -166#9 -166#10 -29#0 -29#1 -29#2 -29#3 -29#4 -29#5 -77#0 -77#1 -77#2 -274 -122 -269 -26 -54"/>
    </vehicle>
    <vehicle id="62" depart="186.00">
        <route edges="-0 -103 -130 -68 -226 151 233 227 -225 -203 -95 -236#0 -236#1 -217#0 -217#1 -217#2 -253 -259 -201 -156 -48 -250#0 -250#1 -250#2 -215 199 -230 -83 -24"/>
    </vehicle>
    <vehicle id="63" depart="189.00">
        <route edges="-106#1 -106#2 -178#0 -178#1 -178#2 -296 -70 70 296 178#2 178#1 178#0 106#2 106#1 106#0 276 89 205 152 99 112 257 -221 -222 -97 -204 238 28 312"/>
    </vehicle>
    <vehicle id="64" depart="192.00">
        <route edges="278 2 153 -0 -103 -130 -68 -226 151 233 227 -225 -203 -95 -166#0 -166#1 -166#2 -166#3 -166#4 -166#5 -166#6 -166#7 -166#8 -166#9 -166#10 -29#0 -29#1 -29#2 -29#3 -29#4 -29#5 -77#0 -77#1 -77#2 261 154 111 -98 -298 -244 -229 76 234"/>
    </vehicle>
    <vehicle id="65" depart="195.00">
        <route edges="-234 -76 229 244 298 98 -111 -154 -261 -274 -122 -269 -26 -54 90 43 69 -271 -206 -297 -37 -65 -214 -144#0 -144#1 -144#2 -144#3 236#1 236#0 95 203 225 -227 -233 -151 226 68 130 -120#0 -120#1 -117 -277 -61 -280#0 -280#1 -280#2 -280#3 -280#4 -280#5 -280#6 -125#0 -125#1"/>
    </vehicle>
    <vehicle id="66" depart="198.00">
        <route edges="276 89 205 152 99 112 257 -221 -222 -97 -204 238 28 312 288 254 55 155 -67 159 232 101 27 116 270 59 293 -88 -93 -311 -231 207 289 24 83 230 -199 215 250#2 250#1 250#0 48"/>
    </vehicle>
    <vehicle id="67" depart="201.00">
        <route edges="-133#6 -133#7 -133#8 -133#9 -164#0 -164#1 -94 -120#0 -120#1 -117 -277 -61 -280#0 -280#1 -280#2 -280#3 -280#4 -280#5 -280#6 -125#0 -125#1 -158 -279 5 -66 -266 -314 -127 -38 -36 -129 -216 -312"/>
    </vehicle>
    <vehicle id="68" depart="204.00">
        <route edges="-132 152 99 112 257 -221 -222 -97 -204 238 28 312 -160 -245#0 -245#1 -245#2 -245#3 -245#4 202 49#2 49#1 49#0 302#7 302#6 302#4 302#3 302#2 302#1 302#0 163 182#17 182#16 182#15 182#14 182#13 182#12 182#11 182#10 182#9 182#8 182#7 182#6"/>
    </vehicle>
    <vehicle id="69" depart="207.00">
        <route edges="182#8 182#7 182#6 182#5 182#4 182#3 182#2 182#1 182#0 -182#0 -182#1 -182#2 -182#3 -182#4 -182#5 -182#6 -182#7 -182#8 -182#9 -182#10 -182#11 -182#12 -182#13 -182#14 -182#15 -182#16 -182#17 -262#0 -262#1 -262#2 -262#3 -6#0 -6#1 -6#2 -6#3 -6#4 -6#5 -6#6 -6#7 -6#8 -6#9 -6#10 -6#11 -6#12 -6#13 -6#14 -6#15 -6#16 -6#17 -63#0 -63#1 -132 -300 -41 -102 -267 -148 -86 -114#0 -114#1 -239#0 -239#1 -239#2 -268 -295 -236#0 -236#1 -53 53 236#1 236#0 95 203 225 -227 -233 -151 226 68 130 -120#0 -120#1 -117 -277 -61 -280#0 -280#1 -280#2 -280#3 -280#4 -280#5 -280#6 -125#0 -125#1 -158"/>
    </vehicle>
    <vehicle id="70" depart="210.00">
        <route edges="-298 -244 -229 76 234 118 57 255 258 -133#0 -133#1 -133#2 -133#3 -133#4 -133#5 -133#6 -133#7 -133#8 -133#9 -164#0 -164#1 -94 -120#0 -120#1 -117 -277 -61 -280#0 -280#1 -280#2 -280#3 -280#4 -280#5 -280#6 -125#0 -125#1 -158 -279 5 -66 -266 -314 -127 -38 -36 -129 -216 -160 -245#0 -245#1 -245#2 -245#3 -245#4 202 49#2 49#1 49#0 302#7 302#6 302#4 302#3 302#2 302#1 302#0 163 -262#0 -262#1 -262#2 -262#3 -6#0 -6#1 -6#2 -6#3 -6#4 -6#5 -6#6 -6#7 -6#8 -6#9 -6#10"/>
    </vehicle>
    <vehicle id="71" depart="213.00">
        <route edges="-217#1 -217#2 -253 -259 -201 -114#0 -114#1 -239#0 -239#1 -239#2 -268 -295 -166#0 -166#1 -166#2 -166#3 -166#4 -166#5 -166#6 -166#7 -166#8 -166#9 -166#10 -29#0 -29#1 -29#2 -29#3 -29#4 -29#5 -77#0 -77#1 -77#2 -274 -122 -269 -26 -54 90 43 69 -271 -206 -297 -37 -65 -214 -44 44 214 65 37 297 206 271 -69 -43 -90 54 26 269"/>
    </vehicle>
    <vehicle id="72" depart="216.00">
        <route edges="-280#1 -280#2 -280#3 -280#4 -280#5 -280#6 -125#0 -125#1 -158 -279 5 -66 -266 -314 -127 -38 -36 -129 -216 -160 -245#0 -245#1 -245#2 -245#3 -245#4 202 49#2 49#1 49#0 302#7 302#6 302#4 302#3 302#2 302#1 302#0 163 182#17 182#16 182#15 182#14 182#13 182#12 182#11 182#10 182#9 182#8 182#7 182#6 182#5 182#4 182#3 182#2 182#1 182#0 -182#0 -182#1 -182#2 -182#3 -182#4"/>
    </vehicle>
    <vehicle id="73" depart="219.00">
        <route edges="-57 -118 -234 -76 229 244 298 98 -111 -154 -261 -274 -122 -269 -26 -54 90 43 69 -271 -206 -297 -37 -65 -214 -144#0 -144#1 -144#2 -144#3 -217#0 -217#1 -217#2 -253 -52 -220 -290#0 -290#1 -56 -147 106#2 106#1 106#0 276 89 205 152 99 112 257 -221 -222 -97 -204 238 28 312 -160 -245#0 -245#1 -245#2 -245#3 -245#4 202 49#2 49#1 49#0 302#7 302#6 302#4 302#3 302#2 302#1 302#0 163 182#17 182#16 182#15 182#14 182#13 182#12 182#11 182#10 182#9 182#8 182#7 182#6 182#5 182#4 182#3 182#2 182#1"/>
    </vehicle>
    <vehicle id="74" depart="222.00">
        <route edges="-182#17 -262#0 -262#1 -262#2 -262#3 -6#0 -6#1 -6#2 -6#3 -6#4 -6#5 -6#6 -6#7 -6#8 -6#9 -6#10 -6#11 -6#12 -6#13 -6#14 -6#15 -6#16 -6#17 -63#0 -63#1 -132 -300 -41 -102 -267 -148 -86 -114#0 -114#1 -239#0 -239#1 -239#2 -268 -295 -236#0 -236#1"/>
    </vehicle>
    <vehicle id="75" depart="225.00">
        <route edges="98 -111 -154 -261 -274 -122 -269 -26 -54 90 43 69 -271 -206 -297 -37 -65 -214 -44 44 214 65 37 297 206 271 -69 -43 -90 54 26 269 122 274 261 154 111 -98 -298 -244 -229 76 234 118 57 255 258 -133#0 -133#1 -133#2 -133#3 -133#4 -133#5 -133#6 -133#7 -133#8 -133#9 -164#0 -164#1 -94"/>
    </vehicle>
    <vehicle id="76" depart="228.00">
        <route edges="-288 -312 -28 -238 204 97 222 221 -257 -112 -99 -152 -205 -89 -276 -106#0 -106#1 -106#2 -178#0 -178#1 -178#2 -296 -70 70 296 178#2 178#1 178#0 106#2 106#1 106#0 276 89 205 152 99 112 257 -221 -222 -97 -204 238 28 312 288 254 -235 -181 -256 -315 -40 -313 -210#0 -210#1 -210#2 -292 -200 -301 -46"/>
    </vehicle>
    <vehicle id="77" depart="231.00">
        <route edges="-155 -55 -254 -288 -312 -28 -238 204 97 222 221 -257 -112 -99 -152 -300 -41 -102 -267 -148 -86 -114#0 -114#1 -239#0 -239#1 -239#2 -268 -295 -236#0 -236#1 -53 53 236#1 236#0 95 203 225 -227 -233 -151 226 68 130 -120#0 -120#1 -117 -277 -61 -280#0 -280#1 -280#2 -280#3 -280#4 -280#5 -280#6 -125#0 -125#1 -158 207 289 24 83 230 -199"/>
    </vehicle>
    <vehicle id="78" depart="234.00">
        <route edges="-245#2 -245#3 -245#4 202 49#2 49#1 49#0 302#7 302#6 302#4 302#3 302#2 302#1 302#0 163 -262#0 -262#1 -262#2 -262#3 -6#0 -6#1 -6#2 -6#3 -6#4 -6#5 -6#6 -6#7 -6#8 -6#9"/>
    </vehicle>
    <vehicle id="79" depart="237.00">
        <route edges="-201 -114#0 -114#1 -239#0 -239#1 -239#2 -268 -295 -236#0 -236#1 -217#0 -217#1 -217#2 -253 -52 -220 -290#0 -290#1 -56 -147 106#2 106#1 106#0 276 89 205 152 99 112 257 -221 -222 -97 -204 238 28 312 -160 -245#0 -245#1 -245#2 -245#3 -245#4 202 49#2 49#1 49#0 302#7 302#6 302#4 302#3 302#2 302#1 302#0 163 182#17 182#16 182#15 182#14 182#13 182#12 182#11 182#10 182#9 182#8 182#7 182#6 182#5 182#4 182#3 182#2 182#1 182#0 -182#0 -182#1 -182#2 -182#3 -182#4 -182#5 -182#6 -182#7 -182#8"/>
    </vehicle>
    <vehicle id="80" depart="240.00">
        <route edges="-133#0 -133#1 -133#2 -133#3 -133#4 -133#5 -133#6 -133#7 -133#8 -133#9 -164#0 -164#1 -94 -120#0 -120#1 -117 -277 -61 -280#0 -280#1 -280#2 -280#3 -280#4 -280#5 -280#6 -125#0 -125#1 -158 -279 5 -66 -266 -314 -127 -38 -36 -129 -216 -312 -28 -238 204 97 222 221 -257 -112 -99 -152 -300 -41 -102 -267 -148 -86"/>
    </vehicle>
    <vehicle id="81" depart="243.00">
        <route edges="-201 -114#0 -114#1 -239#0 -239#1 -239#2 -268 -295 -236#0 -236#1 -217#0 -217#1 -217#2 -253 -52 -220 -290#0 -290#1 -56 -147 106#2 106#1 106#0 276 89 205 152 99 112 257 -221 -222 -97 -204 238 28 312 288 254 -235 -181 -256 -315 -40 -313 -210#0 -210#1 -210#2 -292 -200 -301 -46 -58 -60 119 299"/>
    </vehicle>
    <vehicle id="82" depart="246.00">
        <route edges="26 269 122 274 261 154 111 -98 -298 -244 -229 76 234 118 57 255 258 -133#0"/>
    </vehicle>
    <vehicle id="83" depart="249.00">
        <route edges="-205 -89 -276 -106#0 -106#1 -106#2 -178#0 -178#1 -178#2 -296 -70 70 296 178#2 178#1 178#0 106#2 106#1 106#0"/>
    </vehicle>
    <vehicle id="84" depart="252.00">
        <route edges="-182#7 -182#8 -182#9 -182#10 -182#11 -182#12 -182#13 -182#14 -182#15 -182#16 -182#17 -262#0 -262#1 -262#2 -262#3 -6#0 -6#1 -6#2 -6#3 -6#4 -6#5 -6#6 -6#7 -6#8 -6#9 -6#10 -6#11 -6#12 -6#13 -6#14 -6#15 -6#16 -6#17 -63#0 -63#1 -132 152 99 112 257 -221 -222 -97 -204 238 28 312 -160"/>
    </vehicle>
    <vehicle id="85" depart="255.00">
        <route edges="47 223 -223 -47 -293 -59 -270 -116 -27 -101 -232 -159 -310 -105 -243 -155 -55 -254 -288 -160 -245#0 -245#1 -245#2 -245#3 -245#4 202 49#2 49#1 49#0 302#7 302#6 302#4 302#3 302#2 302#1 302#0 163 -262#0 -262#1 -262#2 -262#3 -6#0 -6#1 -6#2"/>
    </vehicle>
    <vehicle id="86" depart="258.00">
        <route edges="-297 -37 -65 -214 -144#0 -144#1 -144#2 -144#3 236#1 236#0 95 203 225 -227 -233 -151 226 68 130 -120#0 -120#1 -117 -277 -61 -280#0 -280#1 -280#2 -280#3 -280#4 -280#5 -280#6 -125#0 -125#1 -158 -279 5 -66 -266 -314 -127 -38 -36 -129 -216 -312 -28 -238 204"/>
    </vehicle>
    <vehicle id="87" depart="261.00">
        <route edges="226 68 130 -120#0 -120#1 -117 -277 -61 -280#0 -280#1 -280#2 -280#3 -280#4 -280#5 -280#6 -125#0 -125#1 -158 -279 5 -66 -266 -314 -127 -38 -36 -129 -216 -160 -245#0 -245#1 -245#2 -245#3 -245#4 202 49#2 49#1 49#0 302#7 302#6 302#4 302#3 302#2 302#1 302#0 163 182#17 182#16 182#15 182#14 182#13 182#12 182#11 182#10 182#9 182#8 182#7 182#6 182#5 182#4 182#3 182#2 182#1 182#0 -182#0 -182#1 -182#2 -182#3 -182#4 -182#5 -182#6 -182#7 -182#8 -182#9 -182#10 -182#11 -182#12"/>
    </vehicle>
    <vehicle id="88" depart="264.00">
        <route edges="-144#0 -144#1 -144#2 -144#3 236#1 236#0 95 203 225 -227 -233 -151 226 68 130 -120#0 -120#1 -117 -277 -61 -280#0 -280#1 -280#2 -280#3 -280#4 -280#5"/>
    </vehicle>
    <vehicle id="89" depart="267.00">
        <route edges="-280#1 -280#2 -280#3 -280#4 -280#5 -280#6 -125#0 -125#1 -158 -279 5 -66 -266 -314 -127 -38 -36 -129 -216 -312 -28 -238 204 97 222 221 -257 -112 -99 -152 -205 -89 -276 -106#0 -106#1 -106#2 -178#0 -178#1 -178#2 -296"/>
    </vehicle>
    <vehicle id="90" depart="270.00">
        <route edges="182#10 182#9 182#8 182#7 182#6 182#5 182#4 182#3 182#2 182#1 182#0 -182#0 -182#1 -182#2 -182#3 -182#4 -182#5 -182#6 -182#7 -182#8 -182#9 -182#10 -182#11 -182#12 -182#13 -182#14 -182#15 -182#16 -182#17 -262#0 -262#1 -262#2 -262#3 -6#0 -6#1 -6#2 -6#3 -6#4 -6#5 -6#6 -6#7 -6#8 -6#9 -6#10 -6#11 -6#12 -6#13 -6#14 -6#15 -6#16 -6#17 -63#0 -63#1 -132 -205 -89 -276 -106#0 -106#1 -106#2 -178#0 -178#1 -178#2 -296 -70 70 296 178#2 178#1 178#0 106#2"/>
    </vehicle>
    <vehicle id="91" depart="273.00">