<?xml version="1.0" encoding="UTF-8"?>

<!-- generated on 2024-08-11 15:57:31 by Eclipse SUMO netedit Version 1.18.0
-->

<routes xmlns:xsi="http://www.w3.org/2001/XMLSchema-instance" xsi:noNamespaceSchemaLocation="http://sumo.dlr.de/xsd/routes_file.xsd">
    <!-- VTypes -->
    <vType id="DEFAULT_TAXITYPE" vClass="bus"/>
    <vType id="type1" length="5.00" maxSpeed="70.00" accel="10" decel="10" sigma="0.5"/>
    <!-- Routes -->
    <route id="r_0" edges="-102 -267 -148 -86 -114#0 -114#1 -239#0 -239#1 -239#2 -268 -295 -166#0 -166#1 -166#2 -166#3 -166#4 -166#5 -166#6 -166#7 -166#8 -166#9 -166#10 -29#0 -29#1 -29#2 -29#3 -29#4 -29#5 -77#0 -77#1 -77#2 -274 -122 -269 -26 -54 90 43 69 -271 -206 -297 -37 -65 -214 -144#0 -144#1 -144#2 -144#3 236#1 236#0 95 203 225 -227 -233 -151 226 68 130 -120#0 -120#1 -117 -277 -61 -280#0 -280#1 -280#2 -280#3 -280#4 -280#5 -280#6 -125#0 -125#1 -158 -279 5 -66 -266 -314 -127 -38 -36 -129 -216 -312 -28 -238 204 97 222 221 -257 -112 -99 -152 -300 -41" color="yellow" repeat="10" cycleTime="140.00">
        <stop busStop="bs_6" duration="20.00"/>
        <stop busStop="bs_8" duration="20.00"/>
        <stop busStop="bs_3" duration="20.00"/>
        <stop busStop="bs_1" duration="20.00"/>
    </route>
    <route id="r_1" edges="-29#1 -29#2 -29#3 -29#4 -29#5 -77#0 -77#1 -77#2 261 154 111 -98 -298 -244 -229 76 234 118 57 255 258 35">
        <stop busStop="bs_5" duration="20.00"/>
    </route>
    <!-- Vehicles, persons and containers (sorted by depart) -->
    <trip id="t_0" type="DEFAULT_TAXITYPE" depart="0.00" from="-29#1" to="-161"/>
    <vehicle id="bike1" type="type1" depart="0.00" insertionChecks="none">
        <route edges="-102"/>
    </vehicle>
</routes>
