<?xml version="1.0" encoding="UTF-8"?>

<!-- generated on 2024-09-10 09:59:21 by Eclipse SUMO netedit Version 1.19.0
-->

<routes xmlns:xsi="http://www.w3.org/2001/XMLSchema-instance" xsi:noNamespaceSchemaLocation="http://sumo.dlr.de/xsd/routes_file.xsd">
    <!-- VTypes -->
    <vType id="DEFAULT_TAXITYPE" vClass="bus"/>
    <vType id="type1" length="5.00" minGap="3.00" maxSpeed="70.00" vClass="bicycle" width="1.80" latAlignment="arbitrary" accel="10" decel="10" sigma="0.5"/>
    <!-- Routes -->
    <route id="r_0" edges="47 223"/>
    <route id="r_1" edges="-77#0 -77#1 -77#2 261 154 111 -98 -298 -244 -229 76 234 118 57 258 35">
        <stop busStop="bs_5" duration="40.00"/>
    </route>
    <route id="r_10" edges="-6#14 -6#16 -6#17 -63#0 -63#1 -132 -300 -102 -267 -148 -148.50 -86 201 259">
        <stop busStop="bs_6" duration="40.00"/>
    </route>
    <route id="r_11" edges="236#0.49 95 203 225 -227 -233 226 68 130 -120#0 -120#1 -117 -277 -61 -280#0">
        <stop busStop="bs_3" duration="40.00"/>
    </route>
    <route id="r_12" edges="296 178#2 178#1 178#0 106#2 106#1 106#0 276 89 205 152 99 112 257 -222 -97 -204 238 28 312 216 129 36 38 314 266 -5 279 207 289 24 -199 215 250#2 250#1 250#0 48 156 201 259 224"/>
    <route id="r_1_pedestrian" edges="209 45 261 154 111 -98 -298 -244 -229 76 234 118 57 258 23"/>
    <route id="r_1_traffic" edges="-35 -258 -57 -118 -234 -76 229 244 298 98 -111 -154 -261 -45 -209 -161"/>
    <route id="r_2" edges="-00 -103 -130 -68 -226 233 227 -225 -203 -95 -236#0 -236#1 -53">
        <stop busStop="bs_0" duration="40.00"/>
    </route>
    <route id="r_2_pedestrian" edges="106#0 276 89 205 -300 -102 -267 -148 -148.50 -86 201 259"/>
    <route id="r_2_traffic" edges="-93 -311 -231 207 289 24 -199 215 250#2 250#1 250#0 48 156 86 148.50 148 267 102 300 152 99 112 257 -222 -97 -204 238 28 312 288 254 55 155 -67 -310 -62"/>
    <route id="r_3" edges="-148.50 -86 -156 -48 -250#0 -250#1 -250#2 -215 199 -24 -289 -207 231 311">
        <stop busStop="bs_2" duration="40.00"/>
    </route>
    <route id="r_4" edges="-280#6 -125#0 -125#1 -158 -279 5 -266 -314 -38 -36 -129 -216 288 254">
        <stop busStop="bs_1" duration="40.00"/>
    </route>
    <route id="r_5" edges="106#0 276 89 205 -300 -102 -267 -148 -148.50 -86 201 259">
        <stop busStop="bs_6" duration="40.00"/>
    </route>
    <route id="r_5_traffic" edges="-0 -00 -103 -130 -68 -226 233 227 -225 -203 -95 -236#0 -236#1 -53"/>
    <route id="r_6" edges="298 98 -111 -154 -261 -274 -122 -269 -26 -54 90 43 69 -271 -206 -297 -37 -65 -214 -44">
        <stop busStop="bs_8" duration="40.00"/>
    </route>
    <route id="r_6_traffic" edges="53 236#1 236#0 236#0.49 95 203 225 -227 -233 226 68 130 103 0 0.33"/>
    <route id="r_7" edges="-268 -295 95 203 225 -227 -233 226 68 130 103 0 0.33">
        <stop busStop="bs_3" duration="40.00"/>
    </route>
    <route id="r_8" edges="-311 -231 -279 5 -266 -314 -38 -36 -129 -216 -312 -28">
        <stop busStop="bs_1" duration="40.00"/>
    </route>
    <route id="r_8_traffic" edges="44 214 65 37 297 206 271 -69 -43 -90 54 26 269 122 274 -45 -209"/>
    <route id="r_9" edges="-254.33 -288 -312 -28 -238 204 97 222 -257 -112 -99 -152 -205 -89 -276 -106#0">
        <stop busStop="bs_4" duration="40.00"/>
    </route>
    <!-- Vehicles, persons and containers (sorted by depart) -->
    <vehicle id="bike1" type="type1" depart="0.00" departPos="0.00" insertionChecks="none">
        <route edges="-102"/>
    </vehicle>
    <flow id="f_0" begin="0.00" departEdge="0" route="r_8_traffic" end="3600.00" probability="0.05000000000000000278"/>
    <flow id="f_1" begin="0.00" route="r_1_traffic" end="3600.00" probability="0.05000000000000000278"/>
    <flow id="f_1_pedestrian" type="DEFAULT_PEDTYPE" begin="0.00" route="r_1_pedestrian" end="3600.00" vehsPerHour="200"/>
    <flow id="f_2" begin="0.00" route="r_6_traffic" end="3600.00" probability="0.05000000000000000278"/>
    <flow id="f_2_pedestrian" type="DEFAULT_PEDTYPE" begin="0.00" route="r_2_pedestrian" end="3600.00" vehsPerHour="200"/>
    <flow id="f_3" begin="0.00" route="r_5_traffic" end="3600.00" probability="0.05000000000000000278"/>
    <flow id="f_4" begin="0.00" departEdge="0" route="r_2_traffic" end="3600.00" probability="0.05000000000000000278"/>
    <flow id="f_5" begin="0.00" departEdge="0" route="r_12" end="3600.00" probability="0.05000000000000000278"/>
</routes>
