<?xml version="1.0" encoding="UTF-8"?>

<!-- generated on 2024-04-24 15:01:49 by Eclipse SUMO netedit Version 1.19.0
-->

<routes xmlns:xsi="http://www.w3.org/2001/XMLSchema-instance" xsi:noNamespaceSchemaLocation="http://sumo.dlr.de/xsd/routes_file.xsd">
    <!-- Ego vehicle -->
    <vType id="type1" accel="10" decel="10" sigma="0.5" length="5" maxSpeed="70"/>
    <!-- <vType id="DEFAULT_PEDTYPE" vClass="pedestrian" accel="2.6" decel="20"/>
    <vType id="DEFAULT_VEHTYPE" vClass="passenger"  decel="20"/>
    <vType id="DEFAULT_BIKETYPE" vClass="bicycle"  decel="20"/> -->
    
    <vehicle id="bike1" type="type1" depart="0.00" insertionChecks="none">        
        <route edges="60#0"/>
    </vehicle>

    
    <!-- Routes -->
    <route id="r_0" edges="-241#0 -241#1 -241#2 -241#3 -4#0 -4#1 -4#2 -4#3 -4#4 -4#5 -4#6 -4#7 -4#8 -4#9 -4#10 -4#11 -4#12 -4#13 -4#14 -4#15 -4#16 -4#17 -57#0 -57#1 -120 -275 -238 -140 -246 -136 -80 -103#0 -103#1 -215#0 -215#1 -215#2 -247 -270 86 189 206#1 206#0 63#2 63#1 63#0 60#2 60#1 60#0 118 -109#0 -109#1 -106 -253 -55 -255#0 -255#1 -255#2 -255#3 -255#4 -255#5 -255#6 -114#0 -114#1 -145 -E5 -E4 -E3 E0 E1 E2 E6 -214 -290 -91 -245 -232 -101 -88 -139 -190 -82 -252"/>
    <route id="ped_r_0" edges="E9 E10 E11 E12 E7 E8"/>
    <route id="ped_r_1" edges="-E11 -E10 -E9 -E8 -E7 -E12"/>
    <route id="ped_r_2" edges="-E18 -E3 E0 E1 E1.68 E2 -E19 -E18"/>
    <route id="ped_r_3" edges="E19 -E2 -E1 -E1.74 -E0 E3 E18"/>
    
    <route id="b_r_0" edges="E19 -E2 E10 E11 E12 -E1.74 -E0 E3 E13 E8 E9 E10 E11 E12 -E1.74 -E0 E3 E13 E8 E9 E2 -E19"/>
    <route id="b_r_1" edges="-E18 -E3 E0 E1 E1.68 E2 -E19 -E18"/>
    <route id="b_r_2" edges="E19 -E2 -E1 -E1.74 -E0 E3 E18"/>
    <route id="b_r_3" edges="-57#1 -120 -275 -238 -140 -246 -136 -80 -103#0 -103#1 -215#0 -215#1 -215#2 -247 -270 -153#0 -153#1 -153#2 -153#3 -153#4 -153#5  -153#6 -153#7 -153#8 -153#9 -153#10"/>
   

    <!-- Vehicles, persons and containers (sorted by depart) -->
    <flow id="f_0" begin="0.00" from="-4#0" to="-148" number="100" vehsPerHour="200"/>
    <flow id="f_1" begin="0.00" from="39" to="107" number="100" vehsPerHour="200"/>
    <flow id="f_10" begin="0.00" from="-229" to="-66" number="100" vehsPerHour="200"/>
    <flow id="f_2" begin="0.00" from="66" to="229" number="100" vehsPerHour="200"/>
    <flow id="f_3" begin="0.00" from="-0" to="-48" number="100" vehsPerHour="200"/>
    <flow id="f_4" begin="0.00" from="-1#0" to="96#0" number="100" vehsPerHour="200"/>
    <flow id="f_5" begin="0.00" from="48" to="0" number="100" vehsPerHour="200"/>
    <flow id="f_6" begin="0.00" from="-21" to="-220#4" number="100" vehsPerHour="200"/>
    <flow id="f_7" begin="0.00" from="-205" to="285" number="100" vehsPerHour="200"/>
    <flow id="f_9" begin="0.00" from="-84" to="205" number="100" vehsPerHour="200"/>
    <!--<flow id="f_8" type="DEFAULT_BIKETYPE" begin="0.00" route="r_0" number="100" vehsPerHour="100"/>-->
    <flow id="b_1" type="DEFAULT_BIKETYPE" begin="0.00" route="b_r_0" vehsPerHour="300"/>
    <flow id="b_2" type="DEFAULT_BIKETYPE" begin="0.00" route="b_r_1" vehsPerHour="300"/>
    <flow id="b_3" type="DEFAULT_BIKETYPE" begin="0.00" route="b_r_2" vehsPerHour="300"/>
    <flow id="b_4" type="DEFAULT_BIKETYPE" begin="0.00" route="b_r_3" vehsPerHour="300"/>

    <flow id="ped_1" type="DEFAULT_PEDTYPE" begin="0.00" route="ped_r_0" vehsPerHour="90"/>
    <flow id="ped_2" type="DEFAULT_PEDTYPE" begin="0.00" route="ped_r_1" vehsPerHour="90"/>
    <flow id="ped_3" type="DEFAULT_PEDTYPE" begin="0.00" route="ped_r_2" vehsPerHour="800"/>
    <flow id="ped_4" type="DEFAULT_PEDTYPE" begin="0.00" route="ped_r_3" vehsPerHour="800"/>


</routes>
