<?xml version="1.0" encoding="UTF-8"?>

<!-- generated on 2023-06-01 15:58:14 by Eclipse SUMO netedit Version 1.17.0
-->

<routes xmlns:xsi="http://www.w3.org/2001/XMLSchema-instance" xsi:noNamespaceSchemaLocation="http://sumo.dlr.de/xsd/routes_file.xsd">
    <!-- Vehicles, persons and containers (sorted by depart) -->
    <vehicle id="bike1" type="DEFAULT_BIKETYPE" depart="0.00">
        <route edges="1"/>
    </vehicle>
    <flow id="f_0" begin="0.00" departLane="random" departSpeed="avg" fromJunction="12.begin" toJunction="13.end" end="3600.00" vehsPerHour="1800.00"/>
    <flow id="f_1" begin="0.00" departLane="random" departSpeed="avg" fromJunction="12.begin" toJunction="7.begin" end="3600.00" vehsPerHour="800.00"/>
    <flow id="f_10" type="DEFAULT_BIKETYPE" begin="0.00" departLane="random" departSpeed="avg" fromJunction="0.begin" toJunction="13.end" end="3600.00" vehsPerHour="400.00"/>
    <flow id="f_11" type="DEFAULT_BIKETYPE" begin="0.00" departLane="random" departSpeed="avg" fromJunction="7.begin" toJunction="13.end" end="3600.00" vehsPerHour="400.00"/>
    <flow id="f_2" begin="0.00" departLane="random" departSpeed="avg" fromJunction="12.begin" toJunction="0.begin" end="3600.00" vehsPerHour="400.00"/>
    <flow id="f_3" begin="0.00" departLane="random" departSpeed="avg" fromJunction="7.begin" toJunction="0.begin" end="3600.00" vehsPerHour="400.00"/>
    <flow id="f_4" begin="0.00" departLane="random" departSpeed="avg" fromJunction="0.begin" toJunction="7.begin" end="3600.00" vehsPerHour="400.00"/>
    <flow id="f_5" begin="0.00" departLane="random" departSpeed="avg" fromJunction="7.begin" toJunction="13.end" end="3600.00" vehsPerHour="400.00"/>
    <flow id="f_6" begin="0.00" departLane="random" departSpeed="avg" fromJunction="0.begin" toJunction="13.end" end="3600.00" vehsPerHour="400.00"/>
    <flow id="f_7" type="DEFAULT_BIKETYPE" begin="0.00" departLane="random" departSpeed="avg" fromJunction="12.begin" toJunction="13.end" end="3600.00" vehsPerHour="1400.23"/>
    <flow id="f_8" type="DEFAULT_BIKETYPE" begin="0.00" departLane="random" departSpeed="avg" fromJunction="7.begin" toJunction="0.begin" end="3600.00" vehsPerHour="400.00"/>
    <flow id="f_9" type="DEFAULT_BIKETYPE" begin="0.00" departLane="random" departSpeed="avg" fromJunction="0.begin" toJunction="7.begin" end="3600.00" vehsPerHour="400.00"/>
</routes>
