<?xml version="1.0" encoding="UTF-8"?>

<!-- generated on 2023-10-17 14:35:32 by Eclipse SUMO netedit Version 1.18.0
-->

<additional xmlns:xsi="http://www.w3.org/2001/XMLSchema-instance" xsi:noNamespaceSchemaLocation="http://sumo.dlr.de/xsd/additional_file.xsd">
    <!-- Shapes -->
    <poly id="po_0" color="red" fill="0" layer="0.00" shape="277.180959,494.565290 275.692142,490.493831 277.211343,486.726211 279.064769,483.596657 283.683141,483.080128 285.323878,484.660098 285.384646,488.366949 284.533893,492.742249 280.219362,495.233739 278.092480,495.233739 277.180959,494.565290"/>
</additional>
