<?xml version="1.0" encoding="UTF-8"?>

<!-- generated on 2024-09-10 09:57:45 by Eclipse SUMO netedit Version 1.19.0
-->

<additional xmlns:xsi="http://www.w3.org/2001/XMLSchema-instance" xsi:noNamespaceSchemaLocation="http://sumo.dlr.de/xsd/additional_file.xsd">
    <!-- StoppingPlaces -->
    <busStop id="bs_0" lane="233_1" startPos="13.93" endPos="23.93"/>
    <busStop id="bs_1" lane="-266_2" startPos="0.68" endPos="10.68"/>
    <busStop id="bs_2" lane="199_1" startPos="9.72" endPos="19.72"/>
    <busStop id="bs_3" lane="-233_1" startPos="8.16" endPos="18.16"/>
    <busStop id="bs_4" lane="97_1" startPos="10.12" endPos="20.12"/>
    <busStop id="bs_5" lane="-244_2" startPos="4.60" endPos="14.60"/>
    <busStop id="bs_6" lane="-267_3" startPos="1.89" endPos="11.89"/>
    <busStop id="bs_8" lane="43_1" startPos="9.82" endPos="19.82"/>
    <!-- Detectors -->
    <inductionLoop id="e1_0" lane="-43_2" pos="25.81" period="300.00" file="e1_0_groupA.xml" vTypes="type1"/>
    <inductionLoop id="e1_1" lane="-77#2_3" pos="26.25" period="300.00" file="e1_1_groupA.xml" vTypes="DEFAULT_TAXITYPE" friendlyPos="1"/>
    <inductionLoop id="e1_10" lane="-29#4_2" pos="1.82" period="300.00" file="e1_10_groupA.xml" vTypes="type1"/>
    <inductionLoop id="e1_11" lane="-261_1" pos="7.68" period="300.00" file="e1_11_groupA.xml" vTypes="DEFAULT_TAXITYPE"/>
    <inductionLoop id="e1_12" lane="236#0.49_2" pos="4.10" period="300.00" file="e1_12_groupA.xml" vTypes="type1"/>
    <inductionLoop id="e1_13" lane="-295_3" pos="44.42" period="300.00" file="e1_13_groupA.xml" vTypes="DEFAULT_TAXITYPE"/>
    <inductionLoop id="e1_14" lane="-280#6_2" pos="0.45" period="300.00" file="e1_14_groupA.xml" vTypes="type1" friendlyPos="1"/>
    <inductionLoop id="e1_15" lane="-231_3" pos="23.43" period="300.00" file="e1_15_groupA.xml" vTypes="DEFAULT_TAXITYPE"/>
    <inductionLoop id="e1_16" lane="-311_0" pos="11.22" period="300.00" file="e1_16_groupA.xml" vTypes="type1"/>
    <inductionLoop id="e1_17" lane="-38_2" pos="25.22" period="300.00" file="e1_17_groupA.xml" vTypes="type1"/>
    <inductionLoop id="e1_18" lane="-288_2" pos="5.74" period="300.00" file="e1_18_groupA.xml" vTypes="DEFAULT_TAXITYPE"/>
    <inductionLoop id="e1_19" lane="-112_1" pos="3.23" period="300.00" file="e1_19_groupA.xml" vTypes="type1"/>
    <inductionLoop id="e1_2" lane="-164#0_2" pos="0.45" period="300.00" file="e1_2_groupA.xml" vTypes="type1"/>
    <inductionLoop id="e1_20" lane="-132_2" pos="2.19" period="300.00" file="e1_20_groupA.xml" vTypes="DEFAULT_TAXITYPE"/>
    <inductionLoop id="e1_21" lane="-295_2" pos="0.28" period="300.00" file="e1_21_groupA.xml" vTypes="type1"/>
    <inductionLoop id="e1_22" lane="236#0.49_2" pos="54.70" period="300.00" file="e1_22_groupA.xml" vTypes="DEFAULT_TAXITYPE"/>
    <inductionLoop id="e1_3" lane="-103_2" pos="26.62" period="300.00" file="e1_3_groupA.xml" vTypes="DEFAULT_TAXITYPE"/>
    <inductionLoop id="e1_4" lane="-259_2" pos="54.63" period="300.00" file="e1_4_groupA.xml" vTypes="type1"/>
    <inductionLoop id="e1_5" lane="-86_4" pos="6.40" period="300.00" file="e1_5_groupA.xml" vTypes="DEFAULT_TAXITYPE"/>
    <inductionLoop id="e1_6" lane="-289_1" pos="0.12" period="300.00" file="e1_8_groupA.xml" vTypes="type1" friendlyPos="1"/>
    <inductionLoop id="e1_7" lane="-158_3" pos="4.17" period="300.00" file="e1_7_groupA.xml" vTypes="DEFAULT_TAXITYPE" friendlyPos="1"/>
    <inductionLoop id="e1_8" lane="-6#14_2" pos="4.13" period="300.00" file="e1_8_groupA.xml" vTypes="type1" friendlyPos="1"/>
    <inductionLoop id="e1_9" lane="205_1" pos="8.01" period="300.00" file="e1_9_groupA.xml" vTypes="DEFAULT_TAXITYPE"/>
</additional>
