<?xml version="1.0" encoding="UTF-8"?>

<!-- generated on 2024-07-27 12:47:47 by Eclipse SUMO netedit Version 1.18.0
-->

<additional xmlns:xsi="http://www.w3.org/2001/XMLSchema-instance" xsi:noNamespaceSchemaLocation="http://sumo.dlr.de/xsd/additional_file.xsd">
    <!-- StoppingPlaces -->
    <busStop id="bs_0" lane="-225_1" startPos="8.91" endPos="18.91"/>
    <busStop id="bs_1" lane="-266_2" startPos="0.68" endPos="10.68"/>
    <busStop id="bs_2" lane="199_1" startPos="9.72" endPos="19.72"/>
    <busStop id="bs_3" lane="225_1" startPos="10.90" endPos="20.90"/>
    <busStop id="bs_4" lane="97_1" startPos="11.48" endPos="21.48"/>
    <busStop id="bs_5" lane="-244_2" startPos="5.60" endPos="15.60"/>
    <busStop id="bs_6" lane="-267_3" startPos="2.73" endPos="12.73"/>
    <busStop id="bs_8" lane="43_1" startPos="11.02" endPos="21.02"/>
</additional>
