<?xml version="1.0" encoding="UTF-8"?>

<!-- generated on 2024-08-12 14:15:52 by Eclipse SUMO netedit Version 1.19.0
-->

<additional xmlns:xsi="http://www.w3.org/2001/XMLSchema-instance" xsi:noNamespaceSchemaLocation="http://sumo.dlr.de/xsd/additional_file.xsd">
    <!-- StoppingPlaces -->
    <busStop id="bs_0" lane="233_0" startPos="18.64" endPos="28.64"/>
    <busStop id="bs_1" lane="-266_2" startPos="0.68" endPos="10.68"/>
    <busStop id="bs_2" lane="199_1" startPos="9.72" endPos="19.72"/>
    <busStop id="bs_3" lane="-233_0" startPos="8.16" endPos="18.16"/>
    <busStop id="bs_4" lane="97_1" startPos="11.48" endPos="21.48"/>
    <busStop id="bs_5" lane="-244_2" startPos="4.60" endPos="14.60"/>
    <busStop id="bs_6" lane="-267_3" startPos="2.73" endPos="12.73"/>
    <busStop id="bs_8" lane="43_1" startPos="11.02" endPos="21.02"/>
    <!-- Detectors -->
    <inductionLoop id="e1_0" lane="-43_2" pos="26.79" period="300.00" file="e1_0.xml" vTypes="type1"/>
    <inductionLoop id="e1_1" lane="-77#2_3" pos="16.78" period="300.00" file="e1_1.xml" vTypes="DEFAULT_TAXITYPE"/>
    <inductionLoop id="e1_2" lane="-164#1_2" pos="0.00" period="300.00" file="e1_3.xml" vTypes="type1"/>
    <inductionLoop id="e1_3" lane="-103_2" pos="25.65" period="300.00" file="e1_2.xml" vTypes="DEFAULT_TAXITYPE"/>
    <inductionLoop id="e1_4" lane="-259_2" pos="68.92" period="300.00" file="e1_4.xml" vTypes="type1"/>
    <inductionLoop id="e1_5" lane="-86_5" pos="4.65" period="300.00" file="e1_5.xml" vTypes="DEFAULT_TAXITYPE"/>
    <inductionLoop id="e1_6" lane="-24_2" pos="14.78" period="300.00" file="e1_6.xml" vTypes="type1"/>
    <inductionLoop id="e1_7" lane="-158_3" pos="2.48" period="300.00" file="e1_7.xml" vTypes="DEFAULT_TAXITYPE"/>
</additional>
