<?xml version="1.0" encoding="UTF-8"?>

<!-- generated on 2024-09-04 11:39:54 by Eclipse SUMO netedit Version 1.19.0
<configuration xmlns:xsi="http://www.w3.org/2001/XMLSchema-instance" xsi:noNamespaceSchemaLocation="http://sumo.dlr.de/xsd/neteditConfiguration.xsd">

    <input>
        <sumocfg-file value="C:\Users\TUBVVTK-VTSIM14\unity_ws\unity_tum_main_campus\Assets\SumoBridge\Sumo\sumoProject\tum_main_groupB_.sumocfg"/>
        <additional-files value="C:\Users\TUBVVTK-VTSIM14\unity_ws\unity_tum_main_campus\Assets\SumoBridge\Sumo\sumoProject\additional_files/tum_main_groupB_.add.xml"/>
        <route-files value="C:\Users\TUBVVTK-VTSIM14\unity_ws\unity_tum_main_campus\Assets\SumoBridge\Sumo\sumoProject\demand_files/tum_main_groupB_demand.rou.xml"/>
        <sumo-net-file value="C:\Users\TUBVVTK-VTSIM14\unity_ws\unity_tum_main_campus\Assets\SumoBridge\Sumo\sumoProject\net_files/tum_main_groupB.net.xml"/>
    </input>

    <output>
        <output-file value="C:\Users\TUBVVTK-VTSIM14\unity_ws\unity_tum_main_campus\Assets\SumoBridge\Sumo\sumoProject\net_files/tum_main_groupB.net.xml"/>
    </output>

    <processing>
        <geometry.min-radius.fix.railways value="false"/>
        <geometry.max-grade.fix value="false"/>
        <offset.disable-normalization value="true"/>
        <lefthand value="0"/>
    </processing>

    <junctions>
        <no-turnarounds value="true"/>
        <junctions.corner-detail value="5"/>
        <junctions.limit-turn-speed value="5.50"/>
        <rectangular-lane-cut value="1"/>
    </junctions>

    <pedestrian>
        <walkingareas value="0"/>
    </pedestrian>

</configuration>
-->

<net version="1.16" junctionCornerDetail="5" rectangularLaneCut="true" limitTurnSpeed="5.50" xmlns:xsi="http://www.w3.org/2001/XMLSchema-instance" xsi:noNamespaceSchemaLocation="http://sumo.dlr.de/xsd/net_file.xsd">

    <location netOffset="479.78,502.87" convBoundary="0.00,0.00,1111.00,990.28" origBoundary="0.000000,0.000000,0.000000,0.000000" projParameter="+proj=tmerc +lat_0=48.1485460905528 +lon_0=11.5679503890009 +k=1 +x_0=0 +y_0=0 +datum=WGS84 +units=m  +vunits=m +no_defs "/>

    <type id="driving" priority="1" speed="13.89" disallow="pedestrian tram rail_urban rail rail_electric rail_fast ship" width="3.65"/>

    <edge id=":1#1_0" function="internal">
        <lane id=":1#1_0_0" index="0" allow="pedestrian" speed="17.88" length="3.00" width="2.00" shape="198.64,945.44 195.86,946.56"/>
        <lane id=":1#1_0_1" index="1" disallow="all" speed="17.88" length="3.00" width="1.82" shape="197.90,943.69 195.11,944.80"/>
        <lane id=":1#1_0_2" index="2" allow="bicycle" speed="17.88" length="3.00" width="0.89" shape="197.36,942.42 194.58,943.55"/>
    </edge>
    <edge id=":1#1_3" function="internal">
        <lane id=":1#1_3_0" index="0" allow="pedestrian" speed="17.88" length="3.00" width="2.00" shape="191.50,936.29 194.26,935.10"/>
        <lane id=":1#1_3_1" index="1" disallow="all" speed="17.88" length="3.00" width="2.34" shape="192.35,938.28 195.10,937.09"/>
        <lane id=":1#1_3_2" index="2" disallow="pedestrian tram rail_urban rail rail_electric rail_fast ship" speed="17.88" length="3.00" width="4.13" shape="193.61,941.25 196.37,940.07"/>
    </edge>
    <edge id=":1006_0" function="internal">
        <lane id=":1006_0_0" index="0" allow="pedestrian" speed="17.88" length="6.05" width="2.00" shape="257.24,501.51 251.66,503.83"/>
    </edge>
    <edge id=":1006_1" function="internal">
        <lane id=":1006_1_0" index="0" allow="pedestrian" speed="17.88" length="7.09" width="2.00" shape="245.70,489.57 251.31,487.30"/>
        <lane id=":1006_1_1" index="1" disallow="pedestrian tram rail_urban rail rail_electric rail_fast ship" speed="17.88" length="7.09" width="2.40" shape="246.57,491.59 252.16,489.33"/>
        <lane id=":1006_1_2" index="2" disallow="pedestrian tram rail_urban rail rail_electric rail_fast ship" speed="17.88" length="7.09" width="3.28" shape="246.57,491.59 248.78,491.53 250.35,492.82 251.92,494.11 254.13,494.08"/>
        <lane id=":1006_1_3" index="3" allow="bicycle" speed="17.88" length="7.09" width="2.30" shape="247.50,493.75 253.06,491.50"/>
        <lane id=":1006_1_4" index="4" allow="bicycle" speed="17.88" length="7.09" width="2.30" shape="247.50,493.75 249.76,493.74 251.34,495.19 252.93,496.64 255.20,496.65"/>
        <lane id=":1006_1_5" index="5" disallow="pedestrian tram rail_urban rail rail_electric rail_fast ship" speed="17.88" length="7.09" width="2.40" shape="248.60,496.32 250.17,494.78 250.37,492.81 250.58,490.84 252.16,489.33"/>
        <lane id=":1006_1_6" index="6" disallow="pedestrian tram rail_urban rail rail_electric rail_fast ship" speed="17.88" length="7.09" width="3.28" shape="248.60,496.32 254.13,494.08"/>
        <lane id=":1006_1_7" index="7" disallow="pedestrian tram rail_urban rail rail_electric rail_fast ship" speed="17.88" length="7.09" width="3.12" shape="248.60,496.32 250.53,496.05 251.98,496.66 253.42,497.28 255.36,497.03"/>
    </edge>
    <edge id=":104.0_0" function="internal">
        <lane id=":104.0_0_0" index="0" allow="pedestrian" speed="17.88" length="8.03" width="2.00" shape="268.65,435.05 265.60,427.62"/>
        <lane id=":104.0_0_1" index="1" disallow="all" speed="17.88" length="8.03" width="2.43" shape="270.69,434.21 267.65,426.78"/>
        <lane id=":104.0_0_2" index="2" disallow="pedestrian tram rail_urban rail rail_electric rail_fast ship" speed="17.88" length="8.03" width="2.44" shape="272.94,433.28 269.91,425.87"/>
    </edge>
    <edge id=":104.0_3" function="internal">
        <lane id=":104.0_3_0" index="0" allow="pedestrian" speed="17.88" length="7.98" width="2.00" shape="277.44,422.82 280.46,430.19"/>
        <lane id=":104.0_3_1" index="1" disallow="all" speed="17.88" length="7.98" width="2.88" shape="275.18,423.73 278.20,431.12"/>
        <lane id=":104.0_3_2" index="2" disallow="pedestrian tram rail_urban rail rail_electric rail_fast ship" speed="17.88" length="7.98" width="3.03" shape="272.44,424.84 275.47,432.25"/>
    </edge>
    <edge id=":1046_0" function="internal">
        <lane id=":1046_0_0" index="0" allow="pedestrian" speed="17.88" length="6.72" width="2.00" shape="588.12,652.92 587.46,651.21 587.09,650.01 586.65,648.84 585.78,647.25"/>
        <lane id=":1046_0_1" index="1" disallow="pedestrian tram rail_urban rail rail_electric rail_fast ship" speed="17.88" length="6.72" width="2.50" shape="592.80,650.89 591.67,649.20 590.41,648.40 589.07,647.64 587.69,646.07"/>
        <lane id=":1046_0_2" index="2" disallow="pedestrian tram rail_urban rail rail_electric rail_fast ship" speed="17.88" length="6.72" width="3.20" shape="592.80,650.89 592.06,648.99 591.62,647.65 591.11,646.36 590.13,644.59"/>
    </edge>
    <edge id=":1046_3" function="internal">
        <lane id=":1046_3_0" index="0" allow="pedestrian" speed="17.88" length="7.95" width="2.00" shape="597.21,640.25 598.51,642.27 599.44,643.64 600.27,645.06 601.28,647.23"/>
        <lane id=":1046_3_1" index="1" disallow="pedestrian tram rail_urban rail rail_electric rail_fast ship" speed="17.88" length="7.95" width="3.20" shape="595.29,641.42 596.04,643.65 595.71,645.42 595.28,647.25 595.74,649.62"/>
        <lane id=":1046_3_2" index="2" disallow="pedestrian tram rail_urban rail rail_electric rail_fast ship" speed="17.88" length="7.95" width="3.20" shape="592.85,642.91 593.91,644.81 594.47,646.18 594.94,647.60 595.74,649.62"/>
    </edge>
    <edge id=":1057_0" function="internal">
        <lane id=":1057_0_0" index="0" allow="bicycle" speed="17.88" length="3.00" width="1.25" shape="613.25,619.55 610.50,620.77"/>
        <lane id=":1057_0_1" index="1" disallow="pedestrian tram rail_urban rail rail_electric rail_fast ship" speed="17.88" length="3.00" width="3.50" shape="612.28,617.38 609.54,618.60"/>
    </edge>
    <edge id=":1057_2" function="internal">
        <lane id=":1057_2_0" index="0" allow="pedestrian" speed="17.88" length="3.01" width="2.00" shape="606.42,611.58 609.18,610.43"/>
        <lane id=":1057_2_1" index="1" disallow="pedestrian tram rail_urban rail rail_electric rail_fast ship" speed="17.88" length="3.01" width="2.86" shape="608.20,615.67 610.99,614.47"/>
    </edge>
    <edge id=":1066_0" function="internal">
        <lane id=":1066_0_0" index="0" allow="pedestrian" speed="17.88" length="8.10" width="2.00" shape="436.80,424.14 429.17,426.86"/>
    </edge>
    <edge id=":1066_1" function="internal">
        <lane id=":1066_1_0" index="0" allow="pedestrian" speed="17.88" length="8.29" width="2.00" shape="424.05,414.47 431.63,411.88"/>
        <lane id=":1066_1_1" index="1" allow="bicycle" speed="17.88" length="8.29" width="2.25" shape="425.85,418.77 433.46,416.23"/>
        <lane id=":1066_1_2" index="2" disallow="pedestrian tram rail_urban rail rail_electric rail_fast ship" speed="17.88" length="8.29" width="3.44" shape="426.99,421.49 434.56,418.86"/>
        <lane id=":1066_1_3" index="3" disallow="pedestrian tram rail_urban rail rail_electric rail_fast ship" speed="17.88" length="8.29" width="3.11" shape="426.99,421.49 429.52,421.07 431.41,421.69 433.30,422.30 435.83,421.88"/>
    </edge>
    <edge id=":107#1_0" function="internal">
        <lane id=":107#1_0_0" index="0" allow="pedestrian" speed="17.88" length="3.00" width="2.00" shape="810.13,646.65 808.95,643.90"/>
        <lane id=":107#1_0_1" index="1" disallow="all" speed="17.88" length="3.00" width="3.18" shape="812.52,645.63 811.33,642.87"/>
        <lane id=":107#1_0_2" index="2" disallow="pedestrian tram rail_urban rail rail_electric rail_fast ship" speed="17.88" length="3.00" width="3.50" shape="815.59,644.30 814.40,641.55"/>
    </edge>
    <edge id=":107#1_3" function="internal">
        <lane id=":107#1_3_0" index="0" allow="pedestrian" speed="17.88" length="3.00" width="2.00" shape="822.10,638.22 823.28,640.98"/>
        <lane id=":107#1_3_1" index="1" disallow="pedestrian tram rail_urban rail rail_electric rail_fast ship" speed="17.88" length="3.00" width="2.83" shape="817.30,640.29 818.49,643.05"/>
    </edge>
    <edge id=":107#2_0" function="internal">
        <lane id=":107#2_0_0" index="0" allow="pedestrian" speed="17.88" length="3.00" width="2.00" shape="812.54,652.27 811.36,649.51"/>
        <lane id=":107#2_0_1" index="1" disallow="all" speed="17.88" length="3.00" width="3.19" shape="814.93,651.24 813.75,648.48"/>
        <lane id=":107#2_0_2" index="2" disallow="pedestrian tram rail_urban rail rail_electric rail_fast ship" speed="17.88" length="3.00" width="3.50" shape="818.01,649.91 816.82,647.16"/>
    </edge>
    <edge id=":107#2_3" function="internal">
        <lane id=":107#2_3_0" index="0" allow="pedestrian" speed="17.88" length="3.00" width="2.00" shape="824.51,643.84 825.69,646.59"/>
        <lane id=":107#2_3_1" index="1" disallow="pedestrian tram rail_urban rail rail_electric rail_fast ship" speed="17.88" length="3.00" width="2.83" shape="819.73,645.90 820.91,648.66"/>
    </edge>
    <edge id=":1083_0" function="internal">
        <lane id=":1083_0_0" index="0" allow="pedestrian" speed="17.88" length="8.08" width="2.00" shape="226.29,514.43 218.85,517.60"/>
    </edge>
    <edge id=":1083_1" function="internal">
        <lane id=":1083_1_0" index="0" allow="pedestrian" speed="17.88" length="9.03" width="2.00" shape="213.79,505.50 215.87,504.31 217.07,503.10 218.27,501.89 220.34,500.67"/>
        <lane id=":1083_1_1" index="1" allow="bicycle" speed="17.88" length="9.03" width="2.30" shape="215.54,509.70 217.64,508.50 218.85,507.29 220.06,506.07 222.14,504.85"/>
        <lane id=":1083_1_2" index="2" disallow="pedestrian tram rail_urban rail rail_electric rail_fast ship" speed="17.88" length="9.03" width="2.40" shape="216.62,512.28 218.72,510.21 218.93,507.50 219.13,504.79 221.21,502.69"/>
        <lane id=":1083_1_3" index="3" disallow="pedestrian tram rail_urban rail rail_electric rail_fast ship" speed="17.88" length="9.03" width="3.28" shape="216.62,512.28 218.72,511.07 219.94,509.86 221.15,508.64 223.25,507.41"/>
    </edge>
    <edge id=":1093_0" function="internal">
        <lane id=":1093_0_0" index="0" allow="pedestrian" speed="17.88" length="11.96" width="2.00" shape="555.51,646.61 552.54,648.08 550.68,649.43 548.82,650.80 545.86,652.31"/>
        <lane id=":1093_0_1" index="1" allow="bicycle" speed="17.88" length="11.96" width="2.64" shape="553.66,642.03 550.74,643.92 549.30,646.07 547.86,648.24 544.96,650.18"/>
        <lane id=":1093_0_2" index="2" disallow="pedestrian tram rail_urban rail rail_electric rail_fast ship" speed="17.88" length="11.96" width="2.68" shape="552.45,639.03 549.52,641.02 548.18,643.35 546.83,645.69 543.93,647.73"/>
    </edge>
    <edge id=":1106_0" function="internal">
        <lane id=":1106_0_0" index="0" allow="pedestrian" speed="17.88" length="7.97" width="2.00" shape="728.70,302.36 721.36,305.47"/>
    </edge>
    <edge id=":1106_1" function="internal">
        <lane id=":1106_1_0" index="0" allow="pedestrian" speed="17.88" length="8.48" width="2.00" shape="716.30,293.58 723.75,290.58"/>
        <lane id=":1106_1_1" index="1" allow="bus" speed="17.88" length="8.48" width="3.12" shape="717.22,295.75 719.92,295.48 721.91,296.57 723.91,297.66 726.61,297.40"/>
        <lane id=":1106_1_2" index="2" allow="bicycle" speed="17.88" length="8.48" width="2.26" shape="718.20,298.05 725.53,294.82"/>
        <lane id=":1106_1_3" index="3" disallow="pedestrian tram rail_urban rail rail_electric rail_fast ship" speed="17.88" length="8.48" width="3.12" shape="719.25,300.52 726.61,297.40"/>
        <lane id=":1106_1_4" index="4" disallow="pedestrian tram rail_urban rail rail_electric rail_fast ship" speed="17.88" length="8.48" width="2.82" shape="719.25,300.52 721.68,299.99 723.51,300.32 725.33,300.66 727.76,300.13"/>
        <lane id=":1106_1_5" index="5" disallow="pedestrian tram rail_urban rail rail_electric rail_fast ship" speed="17.88" length="8.48" width="3.12" shape="720.42,303.25 722.49,301.86 723.51,300.32 724.54,298.77 726.61,297.40"/>
        <lane id=":1106_1_6" index="6" disallow="pedestrian tram rail_urban rail rail_electric rail_fast ship" speed="17.88" length="8.48" width="2.82" shape="720.42,303.25 727.76,300.13"/>
    </edge>
    <edge id=":1108_0" function="internal">
        <lane id=":1108_0_0" index="0" allow="pedestrian" speed="7.60" length="13.04" width="2.00" shape="974.10,479.04 972.14,475.71 969.78,473.75 967.01,473.15 963.83,473.92"/>
        <lane id=":1108_0_1" index="1" allow="bicycle" speed="8.86" length="17.66" width="3.76" shape="976.74,477.90 974.12,473.48 970.91,470.91 967.10,470.17 962.70,471.27"/>
        <lane id=":1108_0_2" index="2" disallow="pedestrian tram rail_urban rail rail_electric rail_fast ship" speed="9.43" length="20.13" width="2.83" shape="976.35,478.06 973.18,472.32 969.64,468.77 965.71,467.41 961.40,468.24"/>
    </edge>
    <edge id=":1108_3" function="internal">
        <lane id=":1108_3_0" index="0" disallow="pedestrian tram rail_urban rail rail_electric rail_fast ship" speed="11.31" length="13.70" width="3.07" shape="976.35,478.06 973.94,469.77 974.37,464.72"/>
    </edge>
    <edge id=":1108_14" function="internal">
        <lane id=":1108_14_0" index="0" disallow="pedestrian tram rail_urban rail rail_electric rail_fast ship" speed="11.31" length="16.18" width="3.07" shape="974.37,464.72 974.53,462.88 978.13,457.40 984.74,453.32"/>
    </edge>
    <edge id=":1108_4" function="internal">
        <lane id=":1108_4_0" index="0" allow="pedestrian" speed="8.28" length="15.88" width="2.00" shape="987.97,461.09 984.75,463.18 983.08,466.12 982.96,469.92 984.39,474.56"/>
        <lane id=":1108_4_1" index="1" disallow="pedestrian tram rail_urban rail rail_electric rail_fast ship" speed="9.88" length="22.51" width="3.31" shape="985.92,456.16 981.72,459.01 979.66,463.21 979.74,468.75 981.96,475.62"/>
        <lane id=":1108_4_2" index="2" disallow="pedestrian tram rail_urban rail rail_electric rail_fast ship" speed="10.38" length="24.96" width="3.00" shape="985.92,456.16 980.45,459.55 977.48,464.13 977.02,469.91 979.07,476.88"/>
    </edge>
    <edge id=":1108_7" function="internal">
        <lane id=":1108_7_0" index="0" allow="bicycle" speed="17.88" length="27.64" width="3.76" shape="985.79,455.84 978.56,459.73 974.22,463.50 969.88,467.30 962.70,471.27"/>
        <lane id=":1108_7_1" index="1" disallow="pedestrian tram rail_urban rail rail_electric rail_fast ship" speed="17.88" length="27.64" width="2.83" shape="985.92,456.16 961.40,468.24"/>
    </edge>
    <edge id=":1108_9" function="internal">
        <lane id=":1108_9_0" index="0" allow="pedestrian" speed="6.13" length="8.22" width="2.00" shape="975.23,448.04 976.16,449.16 977.72,449.59 979.90,449.33 982.69,448.39"/>
        <lane id=":1108_9_1" index="1" disallow="pedestrian tram rail_urban rail rail_electric rail_fast ship" speed="8.56" length="16.23" width="3.07" shape="970.78,449.94 972.91,453.08 975.94,454.68 979.89,454.77 984.74,453.32"/>
    </edge>
    <edge id=":1108_11" function="internal">
        <lane id=":1108_11_0" index="0" disallow="pedestrian tram rail_urban rail rail_electric rail_fast ship" speed="17.88" length="28.01" width="3.31" shape="970.78,449.94 981.96,475.62"/>
    </edge>
    <edge id=":1108_12" function="internal">
        <lane id=":1108_12_0" index="0" disallow="pedestrian tram rail_urban rail rail_electric rail_fast ship" speed="9.57" length="16.58" width="2.83" shape="967.88,451.19 969.42,456.77 968.85,461.48 966.17,465.30 965.00,466.03"/>
    </edge>
    <edge id=":1108_15" function="internal">
        <lane id=":1108_15_0" index="0" disallow="pedestrian tram rail_urban rail rail_electric rail_fast ship" speed="9.57" length="4.23" width="2.83" shape="965.00,466.03 961.40,468.24"/>
    </edge>
    <edge id=":1108_13" function="internal">
        <lane id=":1108_13_0" index="0" allow="pedestrian" speed="7.53" length="12.86" width="2.00" shape="959.64,464.14 962.34,462.39 963.79,460.00 963.98,456.98 962.90,453.32"/>
    </edge>
    <edge id=":113.100_0" function="internal">
        <lane id=":113.100_0_0" index="0" allow="pedestrian" speed="17.88" length="3.58" width="2.00" shape="746.11,501.23 745.05,498.34"/>
        <lane id=":113.100_0_1" index="1" disallow="all" speed="17.88" length="3.58" width="2.03" shape="747.98,500.44 746.91,497.55"/>
        <lane id=":113.100_0_2" index="2" disallow="pedestrian tram rail_urban rail rail_electric rail_fast ship" speed="17.88" length="3.58" width="3.85" shape="750.86,499.21 749.61,496.41"/>
        <lane id=":113.100_0_3" index="3" disallow="pedestrian tram rail_urban rail rail_electric rail_fast ship" speed="17.88" length="3.58" width="2.88" shape="750.86,499.21 752.71,495.09"/>
        <lane id=":113.100_0_4" index="4" disallow="pedestrian tram rail_urban rail rail_electric rail_fast ship" speed="17.88" length="3.58" width="3.85" shape="754.02,497.87 749.61,496.41"/>
        <lane id=":113.100_0_5" index="5" disallow="pedestrian tram rail_urban rail rail_electric rail_fast ship" speed="17.88" length="3.58" width="2.88" shape="754.02,497.87 752.71,495.09"/>
    </edge>
    <edge id=":113.100_6" function="internal">
        <lane id=":113.100_6_0" index="0" allow="pedestrian" speed="17.88" length="3.01" width="2.00" shape="759.22,492.34 760.41,495.11"/>
        <lane id=":113.100_6_1" index="1" allow="bicycle" speed="17.88" length="3.01" width="1.25" shape="757.73,492.98 758.92,495.74"/>
        <lane id=":113.100_6_2" index="2" disallow="pedestrian tram rail_urban rail rail_electric rail_fast ship" speed="17.88" length="3.01" width="3.39" shape="755.60,493.90 756.79,496.66"/>
    </edge>
    <edge id=":115#1_0" function="internal">
        <lane id=":115#1_0_0" index="0" disallow="all" speed="17.88" length="0.41" width="2.59" shape="561.80,641.59 561.37,641.77"/>
        <lane id=":115#1_0_1" index="1" allow="bicycle" speed="17.88" length="0.41" width="2.70" shape="560.76,639.16 560.38,639.32"/>
        <lane id=":115#1_0_2" index="2" disallow="pedestrian tram rail_urban rail rail_electric rail_fast ship" speed="17.88" length="0.41" width="3.78" shape="559.50,636.17 559.17,636.31"/>
    </edge>
    <edge id=":115#1_3" function="internal">
        <lane id=":115#1_3_0" index="0" allow="pedestrian" speed="17.88" length="0.12" width="2.00" shape="557.32,631.72 557.43,631.67"/>
    </edge>
    <edge id=":121#1_0" function="internal">
        <lane id=":121#1_0_0" index="0" allow="pedestrian" speed="17.88" length="2.80" width="2.00" shape="329.80,466.13 329.02,466.44 328.49,466.63 327.93,466.78 327.12,466.96"/>
    </edge>
    <edge id=":121#1_1" function="internal">
        <lane id=":121#1_1_0" index="0" allow="pedestrian" speed="17.88" length="1.30" width="2.00" shape="324.27,454.20 324.46,454.15 324.58,454.10 324.70,454.05 324.87,453.97"/>
        <lane id=":121#1_1_1" index="1" allow="bicycle" speed="17.88" length="1.30" width="2.36" shape="325.29,458.68 325.69,458.58 325.95,458.48 326.21,458.37 326.59,458.22"/>
        <lane id=":121#1_1_2" index="2" disallow="pedestrian tram rail_urban rail rail_electric rail_fast ship" speed="17.88" length="1.30" width="3.78" shape="325.98,461.66 326.51,461.53 326.88,461.41 327.23,461.27 327.74,461.06"/>
    </edge>
    <edge id=":125.end_0" function="internal">
        <lane id=":125.end_0_0" index="0" disallow="pedestrian tram rail_urban rail rail_electric rail_fast ship" speed="3.78" length="5.05" width="3.50" shape="742.25,-1.56 743.78,-1.29 744.52,-0.67 744.47,0.30 743.63,1.61"/>
    </edge>
    <edge id=":126#1_0" function="internal">
        <lane id=":126#1_0_0" index="0" allow="pedestrian" speed="17.88" length="3.29" width="2.00" shape="452.67,417.92 449.58,419.04"/>
    </edge>
    <edge id=":126#1_1" function="internal">
        <lane id=":126#1_1_0" index="0" allow="pedestrian" speed="17.88" length="3.59" width="2.00" shape="444.57,406.45 447.63,405.44"/>
        <lane id=":126#1_1_1" index="1" allow="bicycle" speed="17.88" length="3.59" width="2.17" shape="446.40,410.80 447.28,410.48 447.90,410.31 448.53,410.15 449.41,409.84"/>
        <lane id=":126#1_1_2" index="2" disallow="pedestrian tram rail_urban rail rail_electric rail_fast ship" speed="17.88" length="3.59" width="3.23" shape="447.50,413.43 450.43,412.34"/>
        <lane id=":126#1_1_3" index="3" disallow="pedestrian tram rail_urban rail rail_electric rail_fast ship" speed="17.88" length="3.59" width="3.17" shape="447.50,413.43 451.63,415.31"/>
        <lane id=":126#1_1_4" index="4" disallow="pedestrian tram rail_urban rail rail_electric rail_fast ship" speed="17.88" length="3.59" width="3.23" shape="448.77,416.45 450.43,412.34"/>
        <lane id=":126#1_1_5" index="5" disallow="pedestrian tram rail_urban rail rail_electric rail_fast ship" speed="17.88" length="3.59" width="3.17" shape="448.77,416.45 451.63,415.31"/>
    </edge>
    <edge id=":129.1_0" function="internal">
        <lane id=":129.1_0_0" index="0" allow="pedestrian" speed="17.88" length="2.99" width="2.00" shape="87.87,992.31 85.10,993.40"/>
        <lane id=":129.1_0_1" index="1" disallow="all" speed="17.88" length="2.99" width="1.82" shape="87.13,990.56 84.34,991.65"/>
        <lane id=":129.1_0_2" index="2" allow="bicycle" speed="17.88" length="2.99" width="0.81" shape="86.60,989.31 83.83,990.44"/>
    </edge>
    <edge id=":129.1_3" function="internal">
        <lane id=":129.1_3_0" index="0" allow="pedestrian" speed="17.88" length="3.01" width="2.00" shape="80.75,983.24 83.52,982.04"/>
        <lane id=":129.1_3_1" index="1" disallow="all" speed="17.88" length="3.01" width="2.34" shape="81.60,985.23 84.36,984.04"/>
        <lane id=":129.1_3_2" index="2" disallow="pedestrian tram rail_urban rail rail_electric rail_fast ship" speed="17.88" length="3.01" width="4.11" shape="82.86,988.19 85.62,987.01"/>
    </edge>
    <edge id=":134#1_0" function="internal">
        <lane id=":134#1_0_0" index="0" allow="pedestrian" speed="17.88" length="0.15" width="2.00" shape="142.86,549.42 142.72,549.48"/>
    </edge>
    <edge id=":134#1_1" function="internal">
        <lane id=":134#1_1_0" index="0" allow="pedestrian" speed="17.88" length="0.15" width="2.00" shape="137.65,537.39 137.79,537.33"/>
        <lane id=":134#1_1_1" index="1" allow="bicycle" speed="17.88" length="0.15" width="2.30" shape="139.41,541.58 139.55,541.53"/>
        <lane id=":134#1_1_2" index="2" disallow="pedestrian tram rail_urban rail rail_electric rail_fast ship" speed="17.88" length="0.15" width="3.28" shape="140.49,544.16 140.63,544.10"/>
    </edge>
    <edge id=":134#2_0" function="internal">
        <lane id=":134#2_0_0" index="0" allow="pedestrian" speed="17.88" length="0.29" width="2.00" shape="152.68,545.31 152.41,545.42"/>
    </edge>
    <edge id=":134#2_1" function="internal">
        <lane id=":134#2_1_0" index="0" allow="pedestrian" speed="17.88" length="0.30" width="2.00" shape="147.34,533.33 147.63,533.21"/>
        <lane id=":134#2_1_1" index="1" allow="bicycle" speed="17.88" length="0.30" width="2.30" shape="149.10,537.52 149.38,537.41"/>
        <lane id=":134#2_1_2" index="2" disallow="pedestrian tram rail_urban rail rail_electric rail_fast ship" speed="17.88" length="0.30" width="3.28" shape="150.18,540.10 150.46,539.98"/>
        <lane id=":134#2_1_3" index="3" disallow="all" speed="17.88" length="0.30" width="3.13" shape="151.42,543.05 151.69,542.94"/>
    </edge>
    <edge id=":134#3_0" function="internal">
        <lane id=":134#3_0_0" index="0" allow="pedestrian" speed="17.88" length="0.30" width="2.00" shape="153.60,544.92 153.32,545.04"/>
    </edge>
    <edge id=":134#3_1" function="internal">
        <lane id=":134#3_1_0" index="0" allow="pedestrian" speed="17.88" length="0.30" width="2.00" shape="148.26,532.94 148.54,532.83"/>
        <lane id=":134#3_1_1" index="1" allow="bicycle" speed="17.88" length="0.30" width="2.30" shape="150.02,537.14 150.29,537.03"/>
        <lane id=":134#3_1_2" index="2" disallow="pedestrian tram rail_urban rail rail_electric rail_fast ship" speed="17.88" length="0.30" width="3.28" shape="151.09,539.72 151.37,539.60"/>
        <lane id=":134#3_1_3" index="3" disallow="all" speed="17.88" length="0.30" width="3.13" shape="152.33,542.67 152.61,542.56"/>
    </edge>
    <edge id=":134#4_0" function="internal">
        <lane id=":134#4_0_0" index="0" allow="pedestrian" speed="17.88" length="0.15" width="2.00" shape="156.95,543.52 156.81,543.58"/>
    </edge>
    <edge id=":134#4_1" function="internal">
        <lane id=":134#4_1_0" index="0" allow="pedestrian" speed="17.88" length="0.15" width="2.00" shape="151.75,531.49 151.88,531.43"/>
        <lane id=":134#4_1_1" index="1" disallow="all" speed="17.88" length="0.15" width="2.40" shape="152.60,533.52 152.73,533.46"/>
        <lane id=":134#4_1_2" index="2" allow="bicycle" speed="17.88" length="0.15" width="2.30" shape="153.50,535.68 153.64,535.63"/>
        <lane id=":134#4_1_3" index="3" disallow="pedestrian tram rail_urban rail rail_electric rail_fast ship" speed="17.88" length="0.15" width="3.28" shape="154.58,538.26 154.72,538.20"/>
    </edge>
    <edge id=":134#5_0" function="internal">
        <lane id=":134#5_0_0" index="0" allow="pedestrian" speed="17.88" length="0.31" width="2.00" shape="165.83,539.80 165.55,539.92"/>
    </edge>
    <edge id=":134#5_1" function="internal">
        <lane id=":134#5_1_0" index="0" allow="pedestrian" speed="17.88" length="0.30" width="2.00" shape="160.48,527.83 160.75,527.71"/>
        <lane id=":134#5_1_1" index="1" disallow="all" speed="17.88" length="0.30" width="2.40" shape="161.33,529.86 161.61,529.74"/>
        <lane id=":134#5_1_2" index="2" allow="bicycle" speed="17.88" length="0.30" width="2.30" shape="162.24,532.03 162.51,531.91"/>
        <lane id=":134#5_1_3" index="3" disallow="pedestrian tram rail_urban rail rail_electric rail_fast ship" speed="17.88" length="0.30" width="3.28" shape="163.32,534.60 163.59,534.48"/>
    </edge>
    <edge id=":134#6_0" function="internal">
        <lane id=":134#6_0_0" index="0" allow="pedestrian" speed="17.88" length="0.29" width="2.00" shape="175.47,535.76 175.20,535.87"/>
    </edge>
    <edge id=":134#6_1" function="internal">
        <lane id=":134#6_1_0" index="0" allow="pedestrian" speed="17.88" length="0.30" width="2.00" shape="170.13,523.78 170.41,523.66"/>
        <lane id=":134#6_1_1" index="1" disallow="all" speed="17.88" length="0.30" width="2.40" shape="170.98,525.81 171.26,525.69"/>
        <lane id=":134#6_1_2" index="2" allow="bicycle" speed="17.88" length="0.30" width="2.30" shape="171.89,527.98 172.17,527.86"/>
        <lane id=":134#6_1_3" index="3" disallow="pedestrian tram rail_urban rail rail_electric rail_fast ship" speed="17.88" length="0.30" width="3.28" shape="172.97,530.55 173.24,530.43"/>
    </edge>
    <edge id=":134#7_0" function="internal">
        <lane id=":134#7_0_0" index="0" allow="pedestrian" speed="17.88" length="0.27" width="2.00" shape="184.97,531.78 184.72,531.88"/>
    </edge>
    <edge id=":134#7_1" function="internal">
        <lane id=":134#7_1_0" index="0" allow="pedestrian" speed="17.88" length="0.31" width="2.00" shape="179.66,519.79 179.97,519.66"/>
        <lane id=":134#7_1_1" index="1" disallow="all" speed="17.88" length="0.31" width="2.40" shape="180.51,521.82 180.80,521.70"/>
        <lane id=":134#7_1_2" index="2" allow="bicycle" speed="17.88" length="0.31" width="2.30" shape="181.42,523.99 181.70,523.87"/>
        <lane id=":134#7_1_3" index="3" disallow="pedestrian tram rail_urban rail rail_electric rail_fast ship" speed="17.88" length="0.31" width="3.28" shape="182.49,526.56 182.77,526.45"/>
    </edge>
    <edge id=":134#8_0" function="internal">
        <lane id=":134#8_0_0" index="0" allow="pedestrian" speed="17.88" length="0.33" width="2.00" shape="185.63,531.51 185.32,531.64"/>
    </edge>
    <edge id=":134#8_1" function="internal">