<?xml version="1.0" encoding="UTF-8"?>

<!-- generated on 2024-08-04 18:43:38 by Eclipse SUMO netedit Version 1.18.0
<configuration xmlns:xsi="http://www.w3.org/2001/XMLSchema-instance" xsi:noNamespaceSchemaLocation="http://sumo.dlr.de/xsd/neteditConfiguration.xsd">

    <input>
        <sumocfg-file value="C:\Users\mboec\Documents\Uni\Masterarbeit\GIT\unity_tum_main_campus\Assets\SumoBridge\Sumo\sumoProject\tum_main_groupA_.sumocfg"/>
        <additional-files value="C:\Users\mboec\Documents\Uni\Masterarbeit\GIT\unity_tum_main_campus\Assets\SumoBridge\Sumo\sumoProject\additional_files/tum_groupA.add.xml"/>
        <route-files value="C:\Users\mboec\Documents\Uni\Masterarbeit\GIT\unity_tum_main_campus\Assets\SumoBridge\Sumo\sumoProject\demand_files/tum_main_groupA_test_demand.rou.xml"/>
        <sumo-net-file value="C:\Users\mboec\Documents\Uni\Masterarbeit\GIT\unity_tum_main_campus\Assets\SumoBridge\Sumo\sumoProject\net_files/tum_main_groupA.net.xml"/>
    </input>

    <output>
        <output-file value="C:\Users\mboec\Documents\Uni\Masterarbeit\GIT\unity_tum_main_campus\Assets\SumoBridge\Sumo\sumoProject\net_files/tum_main_groupA.net.xml"/>
    </output>

    <processing>
        <geometry.min-radius.fix.railways value="false"/>
        <geometry.max-grade.fix value="false"/>
        <offset.disable-normalization value="true"/>
        <lefthand value="0"/>
    </processing>

    <junctions>
        <no-turnarounds value="true"/>
        <junctions.corner-detail value="5"/>
        <junctions.limit-turn-speed value="5.50"/>
        <rectangular-lane-cut value="1"/>
    </junctions>

    <pedestrian>
        <walkingareas value="0"/>
    </pedestrian>

</configuration>
-->

<net version="1.16" junctionCornerDetail="5" rectangularLaneCut="true" limitTurnSpeed="5.50" xmlns:xsi="http://www.w3.org/2001/XMLSchema-instance" xsi:noNamespaceSchemaLocation="http://sumo.dlr.de/xsd/net_file.xsd">

    <location netOffset="479.78,502.87" convBoundary="0.00,0.00,1111.00,988.66" origBoundary="0.000000,0.000000,0.000000,0.000000" projParameter="+proj=tmerc +lat_0=48.1485460905528 +lon_0=11.5679503890009 +k=1 +x_0=0 +y_0=0 +datum=WGS84 +units=m  +vunits=m +no_defs "/>

    <type id="driving" priority="1" speed="13.89" disallow="pedestrian tram rail_urban rail rail_electric rail_fast ship" width="3.65"/>

    <edge id=":1#1_0" function="internal">
        <lane id=":1#1_0_0" index="0" allow="pedestrian" speed="17.88" length="3.00" width="2.00" shape="198.04,943.31 195.28,944.47"/>
        <lane id=":1#1_0_1" index="1" disallow="all" speed="17.88" length="3.00" width="1.68" shape="197.33,941.61 194.57,942.77"/>
        <lane id=":1#1_0_2" index="2" allow="bicycle" speed="17.88" length="3.00" width="0.89" shape="196.83,940.39 194.08,941.59"/>
    </edge>
    <edge id=":1#1_3" function="internal">
        <lane id=":1#1_3_0" index="0" allow="pedestrian" speed="17.88" length="3.01" width="2.00" shape="191.07,934.38 193.84,933.17"/>
        <lane id=":1#1_3_1" index="1" disallow="all" speed="17.88" length="3.01" width="2.34" shape="191.91,936.38 194.67,935.18"/>
        <lane id=":1#1_3_2" index="2" disallow="pedestrian tram rail_urban rail rail_electric rail_fast ship" speed="17.88" length="3.01" width="4.13" shape="193.15,939.36 195.91,938.17"/>
    </edge>
    <edge id=":1006_0" function="internal">
        <lane id=":1006_0_0" index="0" allow="pedestrian" speed="17.88" length="17.16" width="2.00" shape="306.26,518.48 303.94,513.96 301.89,511.10 299.85,508.23 297.53,503.70"/>
        <lane id=":1006_0_1" index="1" disallow="pedestrian tram rail_urban rail rail_electric rail_fast ship" speed="17.88" length="17.16" width="2.63" shape="308.64,517.45 306.27,512.94 304.14,510.12 302.01,507.30 299.66,502.79"/>
        <lane id=":1006_0_2" index="2" disallow="pedestrian tram rail_urban rail rail_electric rail_fast ship" speed="17.88" length="17.16" width="2.69" shape="308.64,517.45 302.10,501.74"/>
    </edge>
    <edge id=":1006_3" function="internal">
        <lane id=":1006_3_0" index="0" allow="pedestrian" speed="17.88" length="17.10" width="2.00" shape="309.73,498.47 311.39,503.27 312.02,506.73 312.64,510.20 314.32,514.99"/>
        <lane id=":1006_3_1" index="1" disallow="pedestrian tram rail_urban rail rail_electric rail_fast ship" speed="17.88" length="17.10" width="3.60" shape="305.00,500.50 311.75,516.10"/>
    </edge>
    <edge id=":1016_0" function="internal">
        <lane id=":1016_0_0" index="0" allow="pedestrian" speed="17.88" length="7.86" width="2.00" shape="379.00,691.07 375.97,684.04"/>
        <lane id=":1016_0_1" index="1" disallow="pedestrian tram rail_urban rail rail_electric rail_fast ship" speed="17.88" length="7.86" width="5.22" shape="380.93,690.19 380.22,687.94 380.12,686.26 379.99,684.60 379.19,682.40"/>
        <lane id=":1016_0_2" index="2" disallow="pedestrian tram rail_urban rail rail_electric rail_fast ship" speed="17.88" length="7.86" width="5.22" shape="383.30,689.11 382.22,687.04 381.31,685.73 380.36,684.42 379.19,682.40"/>
    </edge>
    <edge id=":1016_3" function="internal">
        <lane id=":1016_3_0" index="0" allow="pedestrian" speed="17.88" length="8.28" width="2.00" shape="385.48,679.17 386.78,681.26 387.95,682.52 389.09,683.80 390.31,685.92"/>
        <lane id=":1016_3_1" index="1" disallow="pedestrian tram rail_urban rail rail_electric rail_fast ship" speed="17.88" length="8.28" width="2.34" shape="383.04,680.39 384.41,682.43 385.74,683.58 387.04,684.74 388.34,686.82"/>
        <lane id=":1016_3_2" index="2" disallow="pedestrian tram rail_urban rail rail_electric rail_fast ship" speed="17.88" length="8.28" width="2.88" shape="383.04,680.39 384.02,682.57 384.55,684.12 385.05,685.69 385.96,687.90"/>
    </edge>
    <edge id=":1027_0" function="internal">
        <lane id=":1027_0_0" index="0" allow="pedestrian" speed="17.88" length="5.90" width="2.00" shape="257.11,501.56 251.66,503.83"/>
    </edge>
    <edge id=":1027_1" function="internal">
        <lane id=":1027_1_0" index="0" allow="pedestrian" speed="17.88" length="6.60" width="2.00" shape="246.60,491.75 252.05,489.48"/>
        <lane id=":1027_1_1" index="1" disallow="pedestrian tram rail_urban rail rail_electric rail_fast ship" speed="17.88" length="6.60" width="2.40" shape="247.45,493.78 252.90,491.51"/>
        <lane id=":1027_1_2" index="2" disallow="pedestrian tram rail_urban rail rail_electric rail_fast ship" speed="17.88" length="6.60" width="3.28" shape="247.45,493.78 249.63,493.74 251.17,495.01 252.71,496.29 254.88,496.25"/>
        <lane id=":1027_1_3" index="3" allow="bicycle" speed="17.88" length="6.60" width="2.30" shape="248.36,495.94 253.81,493.68"/>
        <lane id=":1027_1_4" index="4" disallow="pedestrian tram rail_urban rail rail_electric rail_fast ship" speed="17.88" length="6.60" width="2.40" shape="249.43,498.52 250.99,497.00 251.17,495.01 251.34,493.03 252.90,491.51"/>
        <lane id=":1027_1_5" index="5" disallow="pedestrian tram rail_urban rail rail_electric rail_fast ship" speed="17.88" length="6.60" width="3.28" shape="249.43,498.52 254.88,496.25"/>
        <lane id=":1027_1_6" index="6" disallow="all" speed="17.88" length="6.60" width="3.12" shape="250.67,501.47 256.12,499.20"/>
    </edge>
    <edge id=":103.0_0" function="internal">
        <lane id=":103.0_0_0" index="0" allow="pedestrian" speed="17.88" length="8.00" width="2.00" shape="268.61,435.03 265.60,427.61"/>
        <lane id=":103.0_0_1" index="1" disallow="all" speed="17.88" length="8.00" width="2.43" shape="270.66,434.20 267.65,426.78"/>
        <lane id=":103.0_0_2" index="2" disallow="pedestrian tram rail_urban rail rail_electric rail_fast ship" speed="17.88" length="8.00" width="2.44" shape="272.91,433.29 269.91,425.87"/>
    </edge>
    <edge id=":103.0_3" function="internal">
        <lane id=":103.0_3_0" index="0" allow="pedestrian" speed="17.88" length="8.00" width="2.00" shape="277.44,422.82 280.45,430.23"/>
        <lane id=":103.0_3_1" index="1" disallow="all" speed="17.88" length="8.00" width="2.88" shape="275.18,423.73 278.18,431.15"/>
        <lane id=":103.0_3_2" index="2" disallow="pedestrian tram rail_urban rail rail_electric rail_fast ship" speed="17.88" length="8.00" width="3.03" shape="272.44,424.84 275.45,432.26"/>
    </edge>
    <edge id=":1038_0" function="internal">
        <lane id=":1038_0_0" index="0" allow="pedestrian" speed="17.88" length="6.59" width="2.00" shape="733.98,476.17 731.32,470.45"/>
        <lane id=":1038_0_1" index="1" disallow="pedestrian tram rail_urban rail rail_electric rail_fast ship" speed="17.88" length="6.59" width="3.50" shape="738.53,474.22 736.10,468.38"/>
        <lane id=":1038_0_2" index="2" disallow="pedestrian tram rail_urban rail rail_electric rail_fast ship" speed="17.88" length="6.59" width="3.01" shape="738.53,474.22 738.23,472.18 738.82,470.65 739.40,469.13 739.09,467.09"/>
        <lane id=":1038_0_3" index="3" disallow="pedestrian tram rail_urban rail rail_electric rail_fast ship" speed="17.88" length="6.59" width="3.01" shape="741.63,472.90 739.09,467.09"/>
    </edge>
    <edge id=":1038_4" function="internal">
        <lane id=":1038_4_0" index="0" allow="pedestrian" speed="17.88" length="6.36" width="2.00" shape="745.75,464.20 748.13,470.11"/>
        <lane id=":1038_4_1" index="1" allow="bicycle" speed="17.88" length="6.36" width="1.25" shape="744.25,464.85 746.64,470.75"/>
        <lane id=":1038_4_2" index="2" disallow="pedestrian tram rail_urban rail rail_electric rail_fast ship" speed="17.88" length="6.36" width="3.39" shape="742.08,465.79 744.51,471.66"/>
    </edge>
    <edge id=":1048_0" function="internal">
        <lane id=":1048_0_0" index="0" allow="pedestrian" speed="17.88" length="8.26" width="2.00" shape="588.54,654.95 585.38,647.50"/>
        <lane id=":1048_0_1" index="1" disallow="pedestrian tram rail_urban rail rail_electric rail_fast ship" speed="17.88" length="8.26" width="2.50" shape="593.22,652.94 591.84,650.86 590.32,649.81 588.81,648.75 587.47,646.65"/>
        <lane id=":1048_0_2" index="2" disallow="pedestrian tram rail_urban rail rail_electric rail_fast ship" speed="17.88" length="8.26" width="3.20" shape="593.22,652.94 590.11,645.58"/>
    </edge>
    <edge id=":1048_3" function="internal">
        <lane id=":1048_3_0" index="0" allow="pedestrian" speed="17.88" length="8.26" width="2.00" shape="597.75,642.43 598.72,644.57 599.65,645.90 600.63,647.21 601.72,649.30"/>
        <lane id=":1048_3_1" index="1" disallow="pedestrian tram rail_urban rail rail_electric rail_fast ship" speed="17.88" length="8.26" width="3.20" shape="595.63,643.20 596.09,645.66 595.81,647.47 595.58,649.27 596.16,651.68"/>
        <lane id=":1048_3_2" index="2" disallow="pedestrian tram rail_urban rail rail_electric rail_fast ship" speed="17.88" length="8.26" width="3.20" shape="592.95,644.17 596.16,651.68"/>
    </edge>
    <edge id=":1059_0" function="internal">
        <lane id=":1059_0_0" index="0" allow="pedestrian" speed="17.88" length="8.11" width="2.00" shape="616.20,624.02 608.86,627.18"/>
        <lane id=":1059_0_1" index="1" allow="bicycle" speed="17.88" length="8.11" width="1.40" shape="615.54,622.45 608.20,625.61"/>
        <lane id=":1059_0_2" index="2" disallow="pedestrian tram rail_urban rail rail_electric rail_fast ship" speed="17.88" length="8.11" width="3.50" shape="613.58,617.80 606.22,620.97"/>
        <lane id=":1059_0_3" index="3" disallow="pedestrian tram rail_urban rail rail_electric rail_fast ship" speed="17.88" length="8.11" width="2.92" shape="612.34,614.87 604.96,618.01"/>
        <lane id=":1059_0_4" index="4" disallow="pedestrian tram rail_urban rail rail_electric rail_fast ship" speed="17.88" length="8.11" width="2.00" shape="612.34,614.87 609.95,615.46 608.16,615.30 606.38,615.15 603.99,615.75"/>
    </edge>
    <edge id=":1059_5" function="internal">
        <lane id=":1059_5_0" index="0" allow="pedestrian" speed="17.88" length="8.04" width="2.00" shape="603.21,613.91 610.62,610.79"/>
    </edge>
    <edge id=":106#1_0" function="internal">
        <lane id=":106#1_0_0" index="0" allow="pedestrian" speed="17.88" length="3.01" width="2.00" shape="809.85,646.78 809.54,645.94 809.40,645.34 809.26,644.74 808.95,643.90"/>
        <lane id=":106#1_0_1" index="1" disallow="all" speed="17.88" length="3.01" width="3.18" shape="812.37,645.69 811.33,642.87"/>
        <lane id=":106#1_0_2" index="2" disallow="pedestrian tram rail_urban rail rail_electric rail_fast ship" speed="17.88" length="3.01" width="3.50" shape="815.59,644.30 814.40,641.55"/>
    </edge>
    <edge id=":106#1_3" function="internal">
        <lane id=":106#1_3_0" index="0" allow="pedestrian" speed="17.88" length="3.00" width="2.00" shape="822.10,638.22 823.28,640.98"/>
        <lane id=":106#1_3_1" index="1" disallow="pedestrian tram rail_urban rail rail_electric rail_fast ship" speed="17.88" length="3.00" width="2.83" shape="817.30,640.29 818.49,643.05"/>
    </edge>
    <edge id=":106#2_0" function="internal">
        <lane id=":106#2_0_0" index="0" allow="pedestrian" speed="17.88" length="3.01" width="2.00" shape="812.54,652.27 812.15,651.47 811.81,650.95 811.48,650.43 811.08,649.63"/>
        <lane id=":106#2_0_1" index="1" disallow="all" speed="17.88" length="3.01" width="3.50" shape="814.93,651.24 813.61,648.54"/>
        <lane id=":106#2_0_2" index="2" disallow="pedestrian tram rail_urban rail rail_electric rail_fast ship" speed="17.88" length="3.01" width="3.50" shape="818.01,649.91 816.82,647.16"/>
    </edge>
    <edge id=":106#2_3" function="internal">
        <lane id=":106#2_3_0" index="0" allow="pedestrian" speed="17.88" length="3.00" width="2.00" shape="824.51,643.84 825.69,646.59"/>
        <lane id=":106#2_3_1" index="1" disallow="pedestrian tram rail_urban rail rail_electric rail_fast ship" speed="17.88" length="3.00" width="2.83" shape="819.73,645.90 820.91,648.66"/>
    </edge>
    <edge id=":1068_0" function="internal">
        <lane id=":1068_0_0" index="0" allow="pedestrian" speed="17.88" length="7.91" width="2.00" shape="437.81,425.58 430.51,428.63"/>
    </edge>
    <edge id=":1068_1" function="internal">
        <lane id=":1068_1_0" index="0" allow="pedestrian" speed="17.88" length="8.23" width="2.00" shape="425.22,416.24 432.70,413.19"/>
        <lane id=":1068_1_1" index="1" allow="bicycle" speed="17.88" length="8.23" width="2.25" shape="427.05,420.52 434.50,417.56"/>
        <lane id=":1068_1_2" index="2" disallow="pedestrian tram rail_urban rail rail_electric rail_fast ship" speed="17.88" length="8.23" width="3.44" shape="428.21,423.24 435.59,420.19"/>
        <lane id=":1068_1_3" index="3" disallow="pedestrian tram rail_urban rail rail_electric rail_fast ship" speed="17.88" length="8.23" width="3.11" shape="428.21,423.24 430.67,422.75 432.51,423.21 434.36,423.68 436.84,423.22"/>
    </edge>
    <edge id=":1085_0" function="internal">
        <lane id=":1085_0_0" index="0" allow="pedestrian" speed="17.88" length="12.06" width="2.00" shape="230.19,512.80 219.08,517.50"/>
    </edge>
    <edge id=":1085_1" function="internal">
        <lane id=":1085_1_0" index="0" allow="pedestrian" speed="17.88" length="12.42" width="2.00" shape="214.01,505.41 225.14,500.71"/>
        <lane id=":1085_1_1" index="1" allow="bicycle" speed="17.88" length="12.42" width="2.30" shape="215.77,509.61 226.89,504.91"/>
        <lane id=":1085_1_2" index="2" disallow="pedestrian tram rail_urban rail rail_electric rail_fast ship" speed="17.88" length="12.42" width="2.40" shape="216.85,512.18 219.98,509.99 221.42,507.46 222.85,504.93 225.99,502.74"/>
        <lane id=":1085_1_3" index="3" disallow="pedestrian tram rail_urban rail rail_electric rail_fast ship" speed="17.88" length="12.42" width="3.28" shape="216.85,512.18 227.97,507.49"/>
    </edge>
    <edge id=":1095_0" function="internal">
        <lane id=":1095_0_0" index="0" allow="pedestrian" speed="17.88" length="13.15" width="2.00" shape="550.53,650.23 538.69,655.21"/>
        <lane id=":1095_0_1" index="1" allow="bicycle" speed="17.88" length="13.15" width="2.59" shape="548.63,645.67 545.24,647.54 543.22,649.38 541.21,651.22 537.81,653.09"/>
        <lane id=":1095_0_2" index="2" disallow="pedestrian tram rail_urban rail rail_electric rail_fast ship" speed="17.88" length="13.15" width="2.68" shape="547.39,642.68 544.01,644.64 542.10,646.67 540.18,648.69 536.80,650.66"/>
    </edge>
    <edge id=":1108_0" function="internal">
        <lane id=":1108_0_0" index="0" allow="pedestrian" speed="8.18" length="14.77" width="2.00" shape="974.95,481.15 972.46,476.97 969.77,474.37 966.90,473.35 963.83,473.92"/>
        <lane id=":1108_0_1" index="1" allow="bicycle" speed="9.36" length="19.24" width="3.76" shape="977.55,479.90 974.37,474.70 970.84,471.53 966.95,470.39 962.70,471.27"/>
        <lane id=":1108_0_2" index="2" disallow="pedestrian tram rail_urban rail rail_electric rail_fast ship" speed="9.93" length="21.75" width="2.83" shape="977.17,480.08 973.39,473.56 969.51,469.41 965.51,467.64 961.40,468.24"/>
    </edge>
    <edge id=":1108_3" function="internal">
        <lane id=":1108_3_0" index="0" disallow="pedestrian tram rail_urban rail rail_electric rail_fast ship" speed="11.83" length="10.64" width="3.07" shape="977.17,480.08 975.56,473.02 976.69,469.82"/>
    </edge>
    <edge id=":1108_13" function="internal">
        <lane id=":1108_13_0" index="0" disallow="pedestrian tram rail_urban rail rail_electric rail_fast ship" speed="11.83" length="23.24" width="3.07" shape="976.69,469.82 977.83,466.58 983.99,460.75 994.03,455.53"/>
    </edge>
    <edge id=":1108_4" function="internal">
        <lane id=":1108_4_0" index="0" allow="pedestrian" speed="9.14" length="19.50" width="2.00" shape="997.22,463.35 990.92,466.52 986.86,469.77 985.03,473.11 985.45,476.52"/>
        <lane id=":1108_4_1" index="1" disallow="pedestrian tram rail_urban rail rail_electric rail_fast ship" speed="10.52" length="25.71" width="3.31" shape="995.14,458.42 987.87,462.37 983.42,466.88 981.81,471.96 983.02,477.60"/>
    </edge>
    <edge id=":1108_6" function="internal">
        <lane id=":1108_6_0" index="0" allow="bicycle" speed="17.88" length="35.05" width="3.76" shape="995.01,458.11 962.70,471.27"/>
        <lane id=":1108_6_1" index="1" disallow="pedestrian tram rail_urban rail rail_electric rail_fast ship" speed="17.88" length="35.05" width="2.83" shape="995.14,458.42 986.31,461.44 979.14,462.92 971.54,464.61 961.40,468.24"/>
    </edge>
    <edge id=":1108_8" function="internal">
        <lane id=":1108_8_0" index="0" allow="pedestrian" speed="10.76" length="26.59" width="2.00" shape="971.51,439.44 975.48,446.46 980.23,450.68 985.76,452.12 992.08,450.77"/>
        <lane id=":1108_8_1" index="1" disallow="pedestrian tram rail_urban rail rail_electric rail_fast ship" speed="12.30" length="34.56" width="3.07" shape="967.06,441.33 972.18,450.28 978.38,455.63 985.66,457.38 994.03,455.53"/>
    </edge>
    <edge id=":1108_10" function="internal">
        <lane id=":1108_10_0" index="0" disallow="pedestrian tram rail_urban rail rail_electric rail_fast ship" speed="17.88" length="39.62" width="3.31" shape="967.06,441.33 983.02,477.60"/>
    </edge>
    <edge id=":1108_11" function="internal">
        <lane id=":1108_11_0" index="0" disallow="pedestrian tram rail_urban rail rail_electric rail_fast ship" speed="11.19" length="25.40" width="2.83" shape="964.16,442.57 967.29,451.94 967.88,459.34 965.91,464.78 964.07,466.19"/>
    </edge>
    <edge id=":1108_14" function="internal">
        <lane id=":1108_14_0" index="0" disallow="pedestrian tram rail_urban rail rail_electric rail_fast ship" speed="11.19" length="3.37" width="2.83" shape="964.07,466.19 961.40,468.24"/>
    </edge>
    <edge id=":1108_12" function="internal">
        <lane id=":1108_12_0" index="0" allow="pedestrian" speed="9.56" length="21.14" width="2.00" shape="959.64,464.14 962.16,461.84 962.94,457.84 961.98,452.14 959.28,444.75"/>
    </edge>
    <edge id=":1129_0" function="internal">
        <lane id=":1129_0_0" index="0" allow="pedestrian" speed="17.88" length="7.97" width="2.00" shape="728.70,302.36 721.36,305.47"/>
    </edge>
    <edge id=":1129_1" function="internal">
        <lane id=":1129_1_0" index="0" allow="pedestrian" speed="17.88" length="8.40" width="2.00" shape="716.30,293.58 723.75,290.58"/>
        <lane id=":1129_1_1" index="1" allow="bus" speed="17.88" length="8.40" width="3.12" shape="717.22,295.75 719.92,295.48 721.91,296.57 723.91,297.66 726.61,297.40"/>
        <lane id=":1129_1_2" index="2" allow="bicycle" speed="17.88" length="8.40" width="2.26" shape="718.20,298.05 725.53,294.82"/>
        <lane id=":1129_1_3" index="3" disallow="pedestrian tram rail_urban rail rail_electric rail_fast ship" speed="17.88" length="8.40" width="3.12" shape="719.25,300.52 726.61,297.40"/>
        <lane id=":1129_1_4" index="4" disallow="pedestrian tram rail_urban rail rail_electric rail_fast ship" speed="17.88" length="8.40" width="2.82" shape="720.42,303.25 727.76,300.13"/>
    </edge>
    <edge id=":114#1_0" function="internal">
        <lane id=":114#1_0_0" index="0" allow="pedestrian" speed="17.88" length="0.38" width="2.00" shape="563.08,645.02 562.70,645.18"/>
        <lane id=":114#1_0_1" index="1" disallow="all" speed="17.88" length="0.38" width="2.59" shape="562.19,642.91 561.82,643.06"/>
        <lane id=":114#1_0_2" index="2" allow="bicycle" speed="17.88" length="0.38" width="2.70" shape="561.16,640.47 560.81,640.62"/>
        <lane id=":114#1_0_3" index="3" disallow="pedestrian tram rail_urban rail rail_electric rail_fast ship" speed="17.88" length="0.38" width="3.78" shape="559.90,637.49 559.57,637.62"/>
    </edge>
    <edge id=":114#1_4" function="internal">
        <lane id=":114#1_4_0" index="0" allow="pedestrian" speed="17.88" length="0.32" width="2.00" shape="557.68,633.05 557.97,632.93"/>
    </edge>
    <edge id=":120#1_0" function="internal">
        <lane id=":120#1_0_0" index="0" allow="pedestrian" speed="17.88" length="8.01" width="2.00" shape="335.23,468.82 327.84,471.90"/>
    </edge>
    <edge id=":120#1_1" function="internal">
        <lane id=":120#1_1_0" index="0" allow="pedestrian" speed="17.88" length="8.00" width="2.00" shape="322.80,459.83 330.16,456.71"/>
        <lane id=":120#1_1_1" index="1" disallow="all" speed="17.88" length="8.00" width="2.40" shape="323.65,461.87 331.01,458.74"/>
        <lane id=":120#1_1_2" index="2" allow="bicycle" speed="17.88" length="8.00" width="2.36" shape="324.57,464.07 331.93,460.94"/>
        <lane id=":120#1_1_3" index="3" disallow="pedestrian tram rail_urban rail rail_electric rail_fast ship" speed="17.88" length="8.00" width="3.78" shape="325.75,466.89 333.12,463.77"/>
        <lane id=":120#1_1_4" index="4" disallow="all" speed="17.88" length="8.00" width="2.58" shape="326.96,469.81 334.34,466.70"/>
    </edge>
    <edge id=":120.117_0" function="internal">
        <lane id=":120.117_0_0" index="0" allow="pedestrian" speed="17.88" length="1.15" width="2.00" shape="337.04,468.06 335.98,468.50"/>
    </edge>
    <edge id=":120.117_1" function="internal">
        <lane id=":120.117_1_0" index="0" allow="pedestrian" speed="17.88" length="2.87" width="2.00" shape="330.91,456.40 334.27,457.56"/>
        <lane id=":120.117_1_1" index="1" allow="bus bicycle" speed="17.88" length="2.87" width="2.36" shape="332.68,460.62 335.11,459.58"/>
        <lane id=":120.117_1_2" index="2" disallow="pedestrian tram rail_urban rail rail_electric rail_fast ship" speed="17.88" length="2.87" width="3.79" shape="333.86,463.46 336.29,462.42"/>
        <lane id=":120.117_1_3" index="3" disallow="all" speed="17.88" length="2.87" width="2.60" shape="335.09,466.39 337.52,465.37"/>
    </edge>
    <edge id=":124.end_0" function="internal">
        <lane id=":124.end_0_0" index="0" disallow="pedestrian tram rail_urban rail rail_electric rail_fast ship" speed="3.78" length="5.05" width="3.50" shape="742.25,-1.56 743.78,-1.29 744.52,-0.67 744.47,0.30 743.63,1.61"/>
    </edge>
    <edge id=":125#1_0" function="internal">
        <lane id=":125#1_0_0" index="0" allow="pedestrian" speed="17.88" length="2.84" width="2.00" shape="456.70,417.61 454.11,418.77"/>
    </edge>
    <edge id=":125#1_1" function="internal">
        <lane id=":125#1_1_0" index="0" allow="pedestrian" speed="17.88" length="3.31" width="2.00" shape="448.65,406.53 451.27,405.54"/>
        <lane id=":125#1_1_1" index="1" allow="bicycle" speed="17.88" length="3.31" width="2.17" shape="450.57,410.84 453.22,409.87"/>
        <lane id=":125#1_1_2" index="2" disallow="pedestrian tram rail_urban rail rail_electric rail_fast ship" speed="17.88" length="3.31" width="3.23" shape="451.73,413.44 454.32,412.33"/>
        <lane id=":125#1_1_3" index="3" disallow="pedestrian tram rail_urban rail rail_electric rail_fast ship" speed="17.88" length="3.31" width="3.17" shape="451.73,413.44 455.64,415.25"/>
        <lane id=":125#1_1_4" index="4" disallow="pedestrian tram rail_urban rail rail_electric rail_fast ship" speed="17.88" length="3.31" width="3.23" shape="453.07,416.43 454.32,412.33"/>
        <lane id=":125#1_1_5" index="5" disallow="pedestrian tram rail_urban rail rail_electric rail_fast ship" speed="17.88" length="3.31" width="3.17" shape="453.07,416.43 455.64,415.25"/>
    </edge>
    <edge id=":133#1_0" function="internal">
        <lane id=":133#1_0_0" index="0" allow="pedestrian" speed="17.88" length="0.15" width="2.00" shape="142.86,549.42 142.72,549.48"/>
    </edge>
    <edge id=":133#1_1" function="internal">
        <lane id=":133#1_1_0" index="0" allow="pedestrian" speed="17.88" length="0.15" width="2.00" shape="137.65,537.39 137.79,537.33"/>
        <lane id=":133#1_1_1" index="1" allow="bicycle" speed="17.88" length="0.15" width="2.30" shape="139.41,541.58 139.55,541.53"/>
        <lane id=":133#1_1_2" index="2" disallow="pedestrian tram rail_urban rail rail_electric rail_fast ship" speed="17.88" length="0.15" width="3.28" shape="140.49,544.16 140.63,544.10"/>
    </edge>
    <edge id=":133#2_0" function="internal">
        <lane id=":133#2_0_0" index="0" allow="pedestrian" speed="17.88" length="0.29" width="2.00" shape="152.68,545.31 152.41,545.42"/>
    </edge>
    <edge id=":133#2_1" function="internal">
        <lane id=":133#2_1_0" index="0" allow="pedestrian" speed="17.88" length="0.30" width="2.00" shape="147.34,533.33 147.63,533.21"/>
        <lane id=":133#2_1_1" index="1" allow="bicycle" speed="17.88" length="0.30" width="2.30" shape="149.10,537.52 149.38,537.41"/>
        <lane id=":133#2_1_2" index="2" disallow="pedestrian tram rail_urban rail rail_electric rail_fast ship" speed="17.88" length="0.30" width="3.28" shape="150.18,540.10 150.46,539.98"/>
        <lane id=":133#2_1_3" index="3" disallow="all" speed="17.88" length="0.30" width="3.13" shape="151.42,543.05 151.69,542.94"/>
    </edge>
    <edge id=":133#3_0" function="internal">
        <lane id=":133#3_0_0" index="0" allow="pedestrian" speed="17.88" length="0.30" width="2.00" shape="153.60,544.92 153.32,545.04"/>
    </edge>
    <edge id=":133#3_1" function="internal">
        <lane id=":133#3_1_0" index="0" allow="pedestrian" speed="17.88" length="0.30" width="2.00" shape="148.26,532.94 148.54,532.83"/>
        <lane id=":133#3_1_1" index="1" allow="bicycle" speed="17.88" length="0.30" width="2.30" shape="150.02,537.14 150.29,537.03"/>
        <lane id=":133#3_1_2" index="2" disallow="pedestrian tram rail_urban rail rail_electric rail_fast ship" speed="17.88" length="0.30" width="3.28" shape="151.09,539.72 151.37,539.60"/>
        <lane id=":133#3_1_3" index="3" disallow="all" speed="17.88" length="0.30" width="3.13" shape="152.33,542.67 152.61,542.56"/>
    </edge>
    <edge id=":133#4_0" function="internal">
        <lane id=":133#4_0_0" index="0" allow="pedestrian" speed="17.88" length="0.15" width="2.00" shape="156.95,543.52 156.81,543.58"/>
    </edge>
    <edge id=":133#4_1" function="internal">
        <lane id=":133#4_1_0" index="0" allow="pedestrian" speed="17.88" length="0.15" width="2.00" shape="151.75,531.49 151.88,531.43"/>
        <lane id=":133#4_1_1" index="1" disallow="all" speed="17.88" length="0.15" width="2.40" shape="152.60,533.52 152.73,533.46"/>
        <lane id=":133#4_1_2" index="2" allow="bicycle" speed="17.88" length="0.15" width="2.30" shape="153.50,535.68 153.64,535.63"/>
        <lane id=":133#4_1_3" index="3" disallow="pedestrian tram rail_urban rail rail_electric rail_fast ship" speed="17.88" length="0.15" width="3.28" shape="154.58,538.26 154.72,538.20"/>
    </edge>
    <edge id=":133#5_0" function="internal">
        <lane id=":133#5_0_0" index="0" allow="pedestrian" speed="17.88" length="0.31" width="2.00" shape="165.83,539.80 165.55,539.92"/>
    </edge>
    <edge id=":133#5_1" function="internal">
        <lane id=":133#5_1_0" index="0" allow="pedestrian" speed="17.88" length="0.30" width="2.00" shape="160.48,527.83 160.75,527.71"/>
        <lane id=":133#5_1_1" index="1" disallow="all" speed="17.88" length="0.30" width="2.40" shape="161.33,529.86 161.61,529.74"/>
        <lane id=":133#5_1_2" index="2" allow="bicycle" speed="17.88" length="0.30" width="2.30" shape="162.24,532.03 162.51,531.91"/>
        <lane id=":133#5_1_3" index="3" disallow="pedestrian tram rail_urban rail rail_electric rail_fast ship" speed="17.88" length="0.30" width="3.28" shape="163.32,534.60 163.59,534.48"/>
    </edge>
    <edge id=":133#6_0" function="internal">
        <lane id=":133#6_0_0" index="0" allow="pedestrian" speed="17.88" length="0.29" width="2.00" shape="175.47,535.76 175.20,535.87"/>
    </edge>
    <edge id=":133#6_1" function="internal">
        <lane id=":133#6_1_0" index="0" allow="pedestrian" speed="17.88" length="0.30" width="2.00" shape="170.13,523.78 170.41,523.66"/>
        <lane id=":133#6_1_1" index="1" disallow="all" speed="17.88" length="0.30" width="2.40" shape="170.98,525.81 171.26,525.69"/>