<?xml version="1.0" encoding="UTF-8"?>

<!-- generated on 2024-05-03 11:57:45 by Eclipse SUMO netedit Version 1.17.0
<configuration xmlns:xsi="http://www.w3.org/2001/XMLSchema-instance" xsi:noNamespaceSchemaLocation="http://sumo.dlr.de/xsd/netconvertConfiguration.xsd">

    <input>
        <sumo-net-file value="C:\Users\celsius\Projects\1-VT\unity_tum_main_campus\Assets\SumoBridge\Sumo\sumoProject\net_files\tum_campus.net.xml"/>
    </input>

    <output>
        <output-file value="C:\Users\celsius\Projects\1-VT\unity_tum_main_campus\Assets\SumoBridge\Sumo\sumoProject\net_files\tum_campus.net.xml"/>
    </output>

    <processing>
        <geometry.min-radius.fix.railways value="false"/>
        <geometry.max-grade.fix value="false"/>
        <offset.disable-normalization value="true"/>
        <lefthand value="0"/>
    </processing>

    <junctions>
        <no-turnarounds value="true"/>
        <junctions.corner-detail value="5"/>
        <junctions.limit-turn-speed value="5.50"/>
        <rectangular-lane-cut value="1"/>
    </junctions>

    <pedestrian>
        <walkingareas value="0"/>
    </pedestrian>

</configuration>
-->

<net version="1.16" junctionCornerDetail="5" rectangularLaneCut="true" limitTurnSpeed="5.50" xmlns:xsi="http://www.w3.org/2001/XMLSchema-instance" xsi:noNamespaceSchemaLocation="http://sumo.dlr.de/xsd/net_file.xsd">

    <location netOffset="479.78,502.87" convBoundary="0.00,0.00,1111.00,990.28" origBoundary="0.000000,0.000000,0.000000,0.000000" projParameter="+proj=tmerc +lat_0=48.1485460905528 +lon_0=11.5679503890009 +k=1 +x_0=0 +y_0=0 +datum=WGS84 +units=m  +vunits=m +no_defs "/>

    <type id="walk" priority="1" speed="13.89" allow="pedestrian" width="6.00" sidewalkWidth="0.00" bikeLaneWidth="0.00"/>

    <edge id=":0.begin_0" function="internal">
        <lane id=":0.begin_0_0" index="0" disallow="pedestrian bicycle tram rail_urban rail rail_electric rail_fast ship" speed="3.31" length="3.99" width="3.03" shape="209.40,279.59 209.63,278.38 210.12,277.80 210.89,277.85 211.92,278.53"/>
    </edge>
    <edge id=":1#1_0" function="internal">
        <lane id=":1#1_0_0" index="0" disallow="all" speed="17.88" length="8.00" width="2.34" shape="188.99,936.76 196.33,933.58"/>
        <lane id=":1#1_0_1" index="1" disallow="pedestrian bicycle tram rail_urban rail rail_electric rail_fast ship" speed="17.88" length="8.00" width="4.13" shape="190.25,939.73 197.59,936.56"/>
        <lane id=":1#1_0_2" index="2" disallow="pedestrian bicycle tram rail_urban rail rail_electric rail_fast ship" speed="17.88" length="8.00" width="0.96" shape="191.22,942.03 198.58,938.90"/>
        <lane id=":1#1_0_3" index="3" disallow="all" speed="17.88" length="8.00" width="1.80" shape="191.75,943.28 199.12,940.17"/>
    </edge>
    <edge id=":103#1_0" function="internal">
        <lane id=":103#1_0_0" index="0" allow="pedestrian" speed="17.88" length="0.30" width="2.00" shape="562.72,644.16 562.44,644.28"/>
        <lane id=":103#1_0_1" index="1" allow="bicycle" speed="17.88" length="0.30" width="2.70" shape="560.80,639.61 560.52,639.72"/>
        <lane id=":103#1_0_2" index="2" disallow="pedestrian bicycle tram rail_urban rail rail_electric rail_fast ship" speed="17.88" length="0.30" width="3.78" shape="559.54,636.62 559.27,636.74"/>
    </edge>
    <edge id=":109#1_0" function="internal">
        <lane id=":109#1_0_0" index="0" allow="pedestrian" speed="17.88" length="0.30" width="2.00" shape="325.30,455.81 325.57,455.70"/>
        <lane id=":109#1_0_1" index="1" allow="bicycle" speed="17.88" length="0.30" width="2.30" shape="327.10,460.11 327.37,459.99"/>
        <lane id=":109#1_0_2" index="2" disallow="pedestrian bicycle tram rail_urban rail rail_electric rail_fast ship" speed="17.88" length="0.30" width="3.60" shape="328.24,462.83 328.51,462.72"/>
        <lane id=":109#1_0_3" index="3" allow="pedestrian" speed="17.88" length="0.30" width="3.06" shape="330.70,468.73 330.98,468.61"/>
    </edge>
    <edge id=":109.106_0" function="internal">
        <lane id=":109.106_0_0" index="0" allow="pedestrian" speed="17.88" length="0.32" width="2.00" shape="331.03,453.41 331.24,453.33"/>
        <lane id=":109.106_0_1" index="1" allow="bicycle" speed="17.88" length="0.32" width="2.30" shape="332.83,457.71 333.10,457.61"/>
        <lane id=":109.106_0_2" index="2" disallow="pedestrian bicycle tram rail_urban rail rail_electric rail_fast ship" speed="17.88" length="0.32" width="3.60" shape="333.97,460.43 334.28,460.31"/>
        <lane id=":109.106_0_3" index="3" allow="pedestrian" speed="17.88" length="0.32" width="3.06" shape="336.44,466.32 336.84,466.17"/>
    </edge>
    <edge id=":113.begin_0" function="internal">
        <lane id=":113.begin_0_0" index="0" disallow="pedestrian bicycle tram rail_urban rail rail_electric rail_fast ship" speed="3.80" length="5.05" width="3.41" shape="625.99,51.65 624.46,51.35 623.73,50.71 623.80,49.75 624.67,48.46"/>
    </edge>
    <edge id=":113.end_0" function="internal">
        <lane id=":113.end_0_0" index="0" disallow="pedestrian bicycle tram rail_urban rail rail_electric rail_fast ship" speed="3.78" length="5.05" width="3.50" shape="742.25,-1.56 743.78,-1.29 744.52,-0.67 744.47,0.30 743.63,1.61"/>
    </edge>
    <edge id=":114#1_0" function="internal">
        <lane id=":114#1_0_0" index="0" allow="pedestrian" speed="17.88" length="0.41" width="2.00" shape="448.85,403.97 449.33,403.77"/>
        <lane id=":114#1_0_1" index="1" allow="bicycle" speed="17.88" length="0.41" width="2.15" shape="450.80,408.27 451.22,408.10"/>
        <lane id=":114#1_0_2" index="2" disallow="pedestrian bicycle tram rail_urban rail rail_electric rail_fast ship" speed="17.88" length="0.41" width="3.16" shape="451.90,410.69 452.29,410.53"/>
        <lane id=":114#1_0_3" index="3" disallow="pedestrian bicycle tram rail_urban rail rail_electric rail_fast ship" speed="17.88" length="0.41" width="3.19" shape="453.22,413.58 453.56,413.44"/>
        <lane id=":114#1_0_4" index="4" allow="pedestrian" speed="17.88" length="0.41" width="3.19" shape="454.54,416.48 454.84,416.36"/>
    </edge>
    <edge id=":116.1_0" function="internal">
        <lane id=":116.1_0_0" index="0" disallow="all" speed="17.88" length="3.00" width="2.34" shape="80.57,982.81 83.30,981.54"/>
        <lane id=":116.1_0_1" index="1" disallow="pedestrian bicycle tram rail_urban rail rail_electric rail_fast ship" speed="17.88" length="3.00" width="4.11" shape="81.83,985.77 84.56,984.51"/>
        <lane id=":116.1_0_2" index="2" disallow="pedestrian bicycle tram rail_urban rail rail_electric rail_fast ship" speed="17.88" length="3.00" width="0.89" shape="82.80,988.02 85.54,986.81"/>
        <lane id=":116.1_0_3" index="3" disallow="all" speed="17.88" length="3.00" width="1.82" shape="83.31,989.23 86.06,988.06"/>
    </edge>
    <edge id=":121#1_0" function="internal">
        <lane id=":121#1_0_0" index="0" allow="bicycle" speed="17.88" length="0.30" width="2.30" shape="138.64,539.74 138.92,539.62"/>
        <lane id=":121#1_0_1" index="1" disallow="pedestrian bicycle tram rail_urban rail rail_electric rail_fast ship" speed="17.88" length="0.30" width="3.28" shape="139.72,542.31 139.99,542.20"/>
    </edge>
    <edge id=":121#2_0" function="internal">
        <lane id=":121#2_0_0" index="0" disallow="all" speed="17.88" length="0.30" width="2.30" shape="148.33,535.68 148.61,535.56"/>
        <lane id=":121#2_0_1" index="1" disallow="pedestrian bicycle tram rail_urban rail rail_electric rail_fast ship" speed="17.88" length="0.30" width="3.28" shape="149.41,538.25 149.69,538.14"/>
    </edge>
    <edge id=":121#3_0" function="internal">
        <lane id=":121#3_0_0" index="0" disallow="all" speed="17.88" length="0.30" width="2.30" shape="149.25,535.30 149.52,535.18"/>
        <lane id=":121#3_0_1" index="1" disallow="pedestrian bicycle tram rail_urban rail rail_electric rail_fast ship" speed="17.88" length="0.30" width="3.28" shape="150.32,537.87 150.60,537.76"/>
    </edge>
    <edge id=":121#4_0" function="internal">
        <lane id=":121#4_0_0" index="0" allow="bicycle" speed="17.88" length="0.30" width="2.30" shape="152.73,533.84 153.01,533.72"/>
        <lane id=":121#4_0_1" index="1" disallow="pedestrian bicycle tram rail_urban rail rail_electric rail_fast ship" speed="17.88" length="0.30" width="3.28" shape="153.81,536.41 154.08,536.30"/>
    </edge>
    <edge id=":121#5_0" function="internal">
        <lane id=":121#5_0_0" index="0" allow="bicycle" speed="17.88" length="0.30" width="2.30" shape="161.47,530.18 161.74,530.07"/>
        <lane id=":121#5_0_1" index="1" disallow="pedestrian bicycle tram rail_urban rail rail_electric rail_fast ship" speed="17.88" length="0.30" width="3.28" shape="162.54,532.75 162.82,532.64"/>
    </edge>
    <edge id=":121#6_0" function="internal">
        <lane id=":121#6_0_0" index="0" allow="bicycle" speed="17.88" length="0.30" width="2.30" shape="171.12,526.13 171.39,526.01"/>
        <lane id=":121#6_0_1" index="1" disallow="pedestrian bicycle tram rail_urban rail rail_electric rail_fast ship" speed="17.88" length="0.30" width="3.28" shape="172.20,528.70 172.47,528.59"/>
    </edge>
    <edge id=":121#7_0" function="internal">
        <lane id=":121#7_0_0" index="0" disallow="all" speed="17.88" length="0.30" width="2.30" shape="180.65,522.14 180.93,522.02"/>
        <lane id=":121#7_0_1" index="1" disallow="pedestrian bicycle tram rail_urban rail rail_electric rail_fast ship" speed="17.88" length="0.30" width="3.28" shape="181.73,524.72 182.00,524.60"/>
    </edge>
    <edge id=":121#8_0" function="internal">
        <lane id=":121#8_0_0" index="0" disallow="all" speed="17.88" length="0.30" width="2.30" shape="181.29,521.88 181.55,521.77"/>
        <lane id=":121#8_0_1" index="1" disallow="pedestrian bicycle tram rail_urban rail rail_electric rail_fast ship" speed="17.88" length="0.30" width="3.28" shape="182.35,524.46 182.63,524.34"/>
    </edge>
    <edge id=":121#9_0" function="internal">
        <lane id=":121#9_0_0" index="0" allow="bicycle" speed="17.88" length="0.30" width="2.30" shape="194.82,516.21 195.10,516.09"/>
        <lane id=":121#9_0_1" index="1" disallow="pedestrian bicycle tram rail_urban rail rail_electric rail_fast ship" speed="17.88" length="0.30" width="3.28" shape="195.90,518.78 196.17,518.67"/>
    </edge>
    <edge id=":132#1_0" function="internal">
        <lane id=":132#1_0_0" index="0" disallow="all" speed="17.88" length="3.00" width="1.90" shape="381.83,855.13 384.57,853.94"/>
        <lane id=":132#1_0_1" index="1" disallow="pedestrian bicycle tram rail_urban rail rail_electric rail_fast ship" speed="17.88" length="3.00" width="3.33" shape="382.91,857.69 385.60,856.35"/>
        <lane id=":132#1_0_2" index="2" disallow="pedestrian bicycle tram rail_urban rail rail_electric rail_fast ship" speed="17.88" length="3.00" width="1.47" shape="383.79,859.77 386.53,858.56"/>
        <lane id=":132#1_0_3" index="3" disallow="all" speed="17.88" length="3.00" width="1.88" shape="384.41,861.24 387.19,860.10"/>
    </edge>
    <edge id=":132#2_0" function="internal">
        <lane id=":132#2_0_0" index="0" disallow="all" speed="17.88" length="3.00" width="1.89" shape="385.23,853.66 387.96,852.40"/>
        <lane id=":132#2_0_1" index="1" disallow="pedestrian bicycle tram rail_urban rail rail_electric rail_fast ship" speed="17.88" length="3.00" width="3.35" shape="386.25,856.07 388.98,854.81"/>
        <lane id=":132#2_0_2" index="2" disallow="pedestrian bicycle tram rail_urban rail rail_electric rail_fast ship" speed="17.88" length="3.00" width="1.55" shape="387.19,858.28 389.94,857.07"/>
        <lane id=":132#2_0_3" index="3" disallow="all" speed="17.88" length="3.00" width="1.88" shape="387.84,859.82 390.60,858.65"/>
    </edge>
    <edge id=":132#3_0" function="internal">
        <lane id=":132#3_0_0" index="0" disallow="all" speed="17.88" length="8.00" width="1.79" shape="425.66,836.46 433.05,833.39"/>
        <lane id=":132#3_0_1" index="1" disallow="pedestrian bicycle tram rail_urban rail rail_electric rail_fast ship" speed="17.88" length="8.00" width="3.36" shape="426.68,838.87 434.05,835.77"/>
        <lane id=":132#3_0_2" index="2" disallow="pedestrian bicycle tram rail_urban rail rail_electric rail_fast ship" speed="17.88" length="8.00" width="1.56" shape="427.63,841.13 435.01,838.03"/>
        <lane id=":132#3_0_3" index="3" disallow="all" speed="17.88" length="8.00" width="1.86" shape="428.30,842.71 435.67,839.61"/>
    </edge>
    <edge id=":142.begin_0" function="internal">
        <lane id=":142.begin_0_0" index="0" disallow="pedestrian bicycle tram rail_urban rail rail_electric rail_fast ship" speed="3.40" length="4.02" width="2.69" shape="593.75,132.11 593.94,130.88 594.42,130.28 595.19,130.31 596.25,130.96"/>
    </edge>
    <edge id=":142.end_0" function="internal">
        <lane id=":142.end_0_0" index="0" disallow="pedestrian bicycle tram rail_urban rail rail_electric rail_fast ship" speed="3.37" length="4.02" width="2.82" shape="614.22,171.43 613.99,172.65 613.49,173.24 612.72,173.19 611.68,172.51"/>
    </edge>
    <edge id=":144.begin_0" function="internal">
        <lane id=":144.begin_0_0" index="0" disallow="pedestrian bicycle tram rail_urban rail rail_electric rail_fast ship" speed="3.20" length="3.56" width="2.37" shape="868.91,218.83 868.71,219.91 868.27,220.43 867.59,220.40 866.67,219.80"/>
    </edge>
    <edge id=":145.114_0" function="internal">
        <lane id=":145.114_0_0" index="0" allow="pedestrian" speed="17.88" length="0.13" width="2.00" shape="457.27,400.30 457.47,400.21"/>
        <lane id=":145.114_0_1" index="1" allow="bicycle" speed="17.88" length="0.13" width="2.15" shape="459.13,404.64 459.28,404.58"/>
        <lane id=":145.114_0_2" index="2" disallow="pedestrian bicycle tram rail_urban rail rail_electric rail_fast ship" speed="17.88" length="0.13" width="3.16" shape="460.17,407.08 460.29,407.03"/>
        <lane id=":145.114_0_3" index="3" disallow="pedestrian bicycle tram rail_urban rail rail_electric rail_fast ship" speed="17.88" length="0.13" width="3.19" shape="461.42,410.00 461.50,409.97"/>
        <lane id=":145.114_0_4" index="4" allow="pedestrian" speed="17.88" length="0.13" width="3.19" shape="462.67,412.93 462.72,412.92"/>
    </edge>
    <edge id=":146.end_0" function="internal">
        <lane id=":146.end_0_0" index="0" disallow="pedestrian bicycle tram rail_urban rail rail_electric rail_fast ship" speed="4.09" length="6.13" width="4.74" shape="512.90,95.13 514.77,95.45 515.68,96.19 515.63,97.36 514.62,98.96"/>
    </edge>
    <edge id=":151#1_0" function="internal">
        <lane id=":151#1_0_0" index="0" disallow="pedestrian bicycle tram rail_urban rail rail_electric rail_fast ship" speed="17.88" length="0.30" width="2.40" shape="236.10,496.36 236.37,496.24"/>
        <lane id=":151#1_0_1" index="1" allow="bicycle" speed="17.88" length="0.30" width="2.30" shape="237.00,498.53 237.28,498.41"/>
        <lane id=":151#1_0_2" index="2" disallow="pedestrian bicycle tram rail_urban rail rail_electric rail_fast ship" speed="17.88" length="0.30" width="3.28" shape="238.08,501.10 238.35,500.98"/>
    </edge>
    <edge id=":153#1_0" function="internal">
        <lane id=":153#1_0_0" index="0" allow="bicycle" speed="17.88" length="0.10" width="2.49" shape="372.87,717.50 372.87,717.50"/>
        <lane id=":153#1_0_1" index="1" disallow="pedestrian bicycle tram rail_urban rail rail_electric rail_fast ship" speed="17.88" length="0.10" width="3.78" shape="371.65,714.61 371.65,714.61"/>
    </edge>
    <edge id=":153#10_0" function="internal">
        <lane id=":153#10_0_0" index="0" allow="bicycle" speed="17.88" length="0.30" width="2.49" shape="312.12,743.27 311.84,743.39"/>
        <lane id=":153#10_0_1" index="1" disallow="pedestrian bicycle tram rail_urban rail rail_electric rail_fast ship" speed="17.88" length="0.30" width="3.78" shape="310.90,740.38 310.62,740.50"/>
    </edge>
    <edge id=":153#2_0" function="internal">
        <lane id=":153#2_0_0" index="0" allow="bicycle" speed="17.88" length="0.30" width="2.49" shape="365.94,720.44 365.67,720.56"/>
        <lane id=":153#2_0_1" index="1" disallow="pedestrian bicycle tram rail_urban rail rail_electric rail_fast ship" speed="17.88" length="0.30" width="3.78" shape="364.72,717.55 364.44,717.67"/>
    </edge>
    <edge id=":153#3_0" function="internal">
        <lane id=":153#3_0_0" index="0" allow="bicycle" speed="17.88" length="0.30" width="2.49" shape="359.75,723.07 359.47,723.19"/>
        <lane id=":153#3_0_1" index="1" disallow="pedestrian bicycle tram rail_urban rail rail_electric rail_fast ship" speed="17.88" length="0.30" width="3.78" shape="358.52,720.18 358.25,720.30"/>
    </edge>
    <edge id=":153#4_0" function="internal">
        <lane id=":153#4_0_0" index="0" allow="bicycle" speed="17.88" length="0.30" width="2.49" shape="355.77,724.75 355.50,724.87"/>
        <lane id=":153#4_0_1" index="1" disallow="pedestrian bicycle tram rail_urban rail rail_electric rail_fast ship" speed="17.88" length="0.30" width="3.78" shape="354.55,721.87 354.28,721.98"/>
    </edge>
    <edge id=":153#5_0" function="internal">
        <lane id=":153#5_0_0" index="0" allow="bicycle" speed="17.88" length="0.30" width="2.49" shape="347.24,728.37 346.96,728.49"/>
        <lane id=":153#5_0_1" index="1" disallow="pedestrian bicycle tram rail_urban rail rail_electric rail_fast ship" speed="17.88" length="0.30" width="3.78" shape="346.02,725.48 345.74,725.60"/>
    </edge>
    <edge id=":153#6_0" function="internal">
        <lane id=":153#6_0_0" index="0" allow="bicycle" speed="17.88" length="0.30" width="2.49" shape="341.12,730.97 340.84,731.09"/>
        <lane id=":153#6_0_1" index="1" disallow="pedestrian bicycle tram rail_urban rail rail_electric rail_fast ship" speed="17.88" length="0.30" width="3.78" shape="339.89,728.08 339.62,728.20"/>
    </edge>
    <edge id=":153#7_0" function="internal">
        <lane id=":153#7_0_0" index="0" allow="bicycle" speed="17.88" length="0.30" width="2.49" shape="332.67,734.55 332.40,734.66"/>
        <lane id=":153#7_0_1" index="1" disallow="pedestrian bicycle tram rail_urban rail rail_electric rail_fast ship" speed="17.88" length="0.30" width="3.78" shape="331.45,731.66 331.17,731.78"/>
    </edge>
    <edge id=":153#8_0" function="internal">
        <lane id=":153#8_0_0" index="0" allow="bicycle" speed="17.88" length="0.30" width="2.49" shape="326.65,737.12 326.37,737.24"/>
        <lane id=":153#8_0_1" index="1" disallow="pedestrian bicycle tram rail_urban rail rail_electric rail_fast ship" speed="17.88" length="0.30" width="3.78" shape="325.42,734.23 325.14,734.35"/>
    </edge>
    <edge id=":153#9_0" function="internal">
        <lane id=":153#9_0_0" index="0" allow="bicycle" speed="17.88" length="0.10" width="2.49" shape="318.59,740.53 318.59,740.53"/>
        <lane id=":153#9_0_1" index="1" disallow="pedestrian bicycle tram rail_urban rail rail_electric rail_fast ship" speed="17.88" length="0.10" width="3.78" shape="317.36,737.64 317.36,737.64"/>
    </edge>
    <edge id=":164.112_0" function="internal">
        <lane id=":164.112_0_0" index="0" disallow="pedestrian bicycle tram rail_urban rail rail_electric rail_fast ship" speed="17.88" length="6.24" width="2.37" shape="821.04,114.17 818.58,108.44"/>
    </edge>
    <edge id=":164.112_1" function="internal">
        <lane id=":164.112_1_0" index="0" disallow="all" speed="17.88" length="6.25" width="2.55" shape="823.13,106.47 825.60,112.21"/>
        <lane id=":164.112_1_1" index="1" disallow="pedestrian bicycle tram rail_urban rail rail_electric rail_fast ship" speed="17.88" length="6.25" width="2.50" shape="820.81,107.47 823.28,113.21"/>
    </edge>
    <edge id=":164.end_0" function="internal">
        <lane id=":164.end_0_0" index="0" disallow="pedestrian bicycle tram rail_urban rail rail_electric rail_fast ship" speed="3.17" length="3.56" width="2.50" shape="780.29,19.79 780.49,18.71 780.93,18.19 781.61,18.23 782.53,18.82"/>
    </edge>
    <edge id=":165#1_0" function="internal">
        <lane id=":165#1_0_0" index="0" disallow="all" speed="17.88" length="3.00" width="2.62" shape="838.78,705.21 837.72,702.40"/>
        <lane id=":165#1_0_1" index="1" disallow="pedestrian bicycle tram rail_urban rail rail_electric rail_fast ship" speed="17.88" length="3.00" width="3.50" shape="841.72,703.94 840.53,701.19"/>
    </edge>
    <edge id=":165#1_2" function="internal">
        <lane id=":165#1_2_0" index="0" disallow="all" speed="17.88" length="3.00" width="2.27" shape="845.88,698.88 846.96,701.68"/>
        <lane id=":165#1_2_1" index="1" disallow="pedestrian bicycle tram rail_urban rail rail_electric rail_fast ship" speed="17.88" length="3.00" width="2.83" shape="843.43,699.93 844.62,702.69"/>
    </edge>
    <edge id=":165#2_0" function="internal">
        <lane id=":165#2_0_0" index="0" disallow="all" speed="17.88" length="3.00" width="2.90" shape="846.28,723.21 845.26,720.38"/>
        <lane id=":165#2_0_1" index="1" disallow="pedestrian bicycle tram rail_urban rail rail_electric rail_fast ship" speed="17.88" length="3.00" width="3.50" shape="849.38,721.90 848.20,719.13"/>
    </edge>
    <edge id=":165#2_2" function="internal">
        <lane id=":165#2_2_0" index="0" disallow="all" speed="17.88" length="3.00" width="2.09" shape="853.46,716.90 854.55,719.69"/>
        <lane id=":165#2_2_1" index="1" disallow="pedestrian bicycle tram rail_urban rail rail_electric rail_fast ship" speed="17.88" length="3.00" width="2.83" shape="851.12,717.90 852.29,720.66"/>
    </edge>
    <edge id=":169#1_0" function="internal">
        <lane id=":169#1_0_0" index="0" disallow="all" speed="17.88" length="7.60" width="2.81" shape="1104.70,415.15 1097.70,418.13"/>
        <lane id=":169#1_0_1" index="1" disallow="pedestrian bicycle tram rail_urban rail rail_electric rail_fast ship" speed="17.88" length="7.60" width="3.07" shape="1103.55,412.44 1096.56,415.42"/>
        <lane id=":169#1_0_2" index="2" disallow="pedestrian bicycle tram rail_urban rail rail_electric rail_fast ship" speed="17.88" length="7.60" width="3.07" shape="1102.36,409.62 1095.37,412.59"/>
        <lane id=":169#1_0_3" index="3" disallow="all" speed="17.88" length="7.60" width="1.73" shape="1101.43,407.41 1094.43,410.38"/>
    </edge>
    <edge id=":169#10_0" function="internal">
        <lane id=":169#10_0_0" index="0" disallow="all" speed="17.88" length="3.00" width="2.81" shape="1038.81,443.10 1036.06,444.29"/>
        <lane id=":169#10_0_1" index="1" disallow="pedestrian bicycle tram rail_urban rail rail_electric rail_fast ship" speed="17.88" length="3.00" width="3.07" shape="1037.69,440.38 1034.93,441.57"/>
        <lane id=":169#10_0_2" index="2" disallow="pedestrian bicycle tram rail_urban rail rail_electric rail_fast ship" speed="17.88" length="3.00" width="3.07" shape="1036.52,437.54 1033.76,438.73"/>
        <lane id=":169#10_0_3" index="3" disallow="all" speed="17.88" length="3.00" width="2.22" shape="1035.52,435.12 1032.75,436.29"/>
    </edge>
    <edge id=":169#11_0" function="internal">
        <lane id=":169#11_0_0" index="0" disallow="all" speed="17.88" length="3.00" width="2.81" shape="1031.35,446.23 1028.60,447.44"/>
        <lane id=":169#11_0_1" index="1" disallow="pedestrian bicycle tram rail_urban rail rail_electric rail_fast ship" speed="17.88" length="3.00" width="3.07" shape="1030.22,443.51 1027.48,444.73"/>
        <lane id=":169#11_0_2" index="2" disallow="pedestrian bicycle tram rail_urban rail rail_electric rail_fast ship" speed="17.88" length="3.00" width="3.07" shape="1029.05,440.68 1026.30,441.89"/>
        <lane id=":169#11_0_3" index="3" disallow="all" speed="17.88" length="3.00" width="2.29" shape="1028.04,438.23 1025.28,439.41"/>
    </edge>
    <edge id=":169#12_0" function="internal">
        <lane id=":169#12_0_0" index="0" disallow="all" speed="17.88" length="3.00" width="2.81" shape="1019.44,451.23 1016.71,452.49"/>
        <lane id=":169#12_0_1" index="1" disallow="pedestrian bicycle tram rail_urban rail rail_electric rail_fast ship" speed="17.88" length="3.00" width="3.07" shape="1018.31,448.52 1015.59,449.78"/>
        <lane id=":169#12_0_2" index="2" disallow="pedestrian bicycle tram rail_urban rail rail_electric rail_fast ship" speed="17.88" length="3.00" width="3.07" shape="1017.14,445.68 1014.41,446.94"/>
        <lane id=":169#12_0_3" index="3" disallow="all" speed="17.88" length="3.00" width="2.41" shape="1016.11,443.20 1013.36,444.41"/>
    </edge>
    <edge id=":169#13_0" function="internal">
        <lane id=":169#13_0_0" index="0" disallow="all" speed="17.88" length="1.91" width="2.81" shape="1014.25,453.51 1012.51,454.29"/>
        <lane id=":169#13_0_1" index="1" disallow="pedestrian bicycle tram rail_urban rail rail_electric rail_fast ship" speed="17.88" length="1.91" width="3.07" shape="1013.12,450.80 1011.38,451.57"/>
        <lane id=":169#13_0_2" index="2" disallow="pedestrian bicycle tram rail_urban rail rail_electric rail_fast ship" speed="17.88" length="1.91" width="3.07" shape="1011.95,447.96 1010.20,448.74"/>
        <lane id=":169#13_0_3" index="3" disallow="all" speed="17.88" length="1.91" width="2.46" shape="1010.90,445.43 1009.14,446.18"/>
    </edge>
    <edge id=":169#14_0" function="internal">
        <lane id=":169#14_0_0" index="0" disallow="all" speed="17.88" length="1.91" width="2.81" shape="1012.32,454.36 1010.56,455.11"/>
        <lane id=":169#14_0_1" index="1" disallow="pedestrian bicycle tram rail_urban rail rail_electric rail_fast ship" speed="17.88" length="1.91" width="3.07" shape="1011.19,451.65 1009.44,452.39"/>
        <lane id=":169#14_0_2" index="2" disallow="pedestrian bicycle tram rail_urban rail rail_electric rail_fast ship" speed="17.88" length="1.91" width="3.07" shape="1010.02,448.81 1008.26,449.55"/>
        <lane id=":169#14_0_3" index="3" disallow="all" speed="17.88" length="1.91" width="2.47" shape="1008.96,446.26 1007.20,447.00"/>
    </edge>
    <edge id=":169#15_0" function="internal">
        <lane id=":169#15_0_0" index="0" disallow="all" speed="17.88" length="1.69" width="2.81" shape="1004.96,457.43 1003.39,458.15"/>
        <lane id=":169#15_0_1" index="1" disallow="pedestrian bicycle tram rail_urban rail rail_electric rail_fast ship" speed="17.88" length="1.69" width="3.07" shape="1003.83,454.72 1002.29,455.43"/>
        <lane id=":169#15_0_2" index="2" disallow="pedestrian bicycle tram rail_urban rail rail_electric rail_fast ship" speed="17.88" length="1.69" width="3.07" shape="1002.65,451.88 1001.13,452.59"/>
        <lane id=":169#15_0_3" index="3" disallow="all" speed="17.88" length="1.69" width="2.54" shape="1001.59,449.32 1000.07,449.99"/>
    </edge>
    <edge id=":169#16_0" function="internal">
        <lane id=":169#16_0_0" index="0" disallow="all" speed="17.88" length="1.69" width="2.81" shape="1003.21,458.23 1001.68,458.88"/>
        <lane id=":169#16_0_1" index="1" disallow="pedestrian bicycle tram rail_urban rail rail_electric rail_fast ship" speed="17.88" length="1.69" width="3.07" shape="1002.10,455.51 1000.55,456.16"/>
        <lane id=":169#16_0_2" index="2" disallow="pedestrian bicycle tram rail_urban rail rail_electric rail_fast ship" speed="17.88" length="1.69" width="3.07" shape="1000.94,452.66 999.38,453.32"/>
        <lane id=":169#16_0_3" index="3" disallow="all" speed="17.88" length="1.69" width="2.55" shape="999.88,450.07 998.30,450.73"/>
    </edge>
    <edge id=":169#17_0" function="internal">
        <lane id=":169#17_0_0" index="0" disallow="all" speed="17.88" length="3.00" width="2.81" shape="996.02,461.23 993.28,462.44"/>
        <lane id=":169#17_0_1" index="1" disallow="pedestrian bicycle tram rail_urban rail rail_electric rail_fast ship" speed="17.88" length="3.00" width="3.07" shape="994.89,458.51 992.15,459.72"/>
        <lane id=":169#17_0_2" index="2" disallow="pedestrian bicycle tram rail_urban rail rail_electric rail_fast ship" speed="17.88" length="3.00" width="3.07" shape="993.72,455.68 990.97,456.89"/>
        <lane id=":169#17_0_3" index="3" disallow="all" speed="17.88" length="3.00" width="2.61" shape="992.64,453.08 989.88,454.26"/>
    </edge>
    <edge id=":169#2_0" function="internal">
        <lane id=":169#2_0_0" index="0" disallow="all" speed="17.88" length="7.60" width="2.81" shape="1097.33,418.29 1090.34,421.29"/>
        <lane id=":169#2_0_1" index="1" disallow="pedestrian bicycle tram rail_urban rail rail_electric rail_fast ship" speed="17.88" length="7.60" width="3.07" shape="1096.19,415.58 1089.20,418.58"/>
        <lane id=":169#2_0_2" index="2" disallow="pedestrian bicycle tram rail_urban rail rail_electric rail_fast ship" speed="17.88" length="7.60" width="3.07" shape="1095.00,412.75 1088.02,415.75"/>
        <lane id=":169#2_0_3" index="3" disallow="all" speed="17.88" length="7.60" width="1.80" shape="1094.07,410.53 1087.08,413.50"/>
    </edge>
    <edge id=":169#3_0" function="internal">
        <lane id=":169#3_0_0" index="0" disallow="all" speed="17.88" length="8.00" width="2.81" shape="1089.92,421.47 1082.54,424.58"/>
        <lane id=":169#3_0_1" index="1" disallow="pedestrian bicycle tram rail_urban rail rail_electric rail_fast ship" speed="17.88" length="8.00" width="3.07" shape="1088.78,418.75 1081.41,421.87"/>
        <lane id=":169#3_0_2" index="2" disallow="pedestrian bicycle tram rail_urban rail rail_electric rail_fast ship" speed="17.88" length="8.00" width="3.07" shape="1087.60,415.92 1080.23,419.04"/>
        <lane id=":169#3_0_3" index="3" disallow="all" speed="17.88" length="8.00" width="1.83" shape="1086.66,413.68 1079.28,416.78"/>
    </edge>
    <edge id=":169#4_0" function="internal">
        <lane id=":169#4_0_0" index="0" disallow="all" speed="17.88" length="0.30" width="2.81" shape="1080.89,425.27 1080.61,425.39"/>