<?xml version="1.0" encoding="UTF-8"?>

<!-- generated on 2024-07-29 14:15:36 by Eclipse SUMO netedit Version 1.18.0
<configuration xmlns:xsi="http://www.w3.org/2001/XMLSchema-instance" xsi:noNamespaceSchemaLocation="http://sumo.dlr.de/xsd/neteditConfiguration.xsd">

    <input>
        <sumo-net-file value="C:\Users\mboec\Documents\Uni\Masterarbeit\GIT\unity_tum_main_campus\Assets\SumoBridge\Sumo\sumoProject\net_files\tum_main_groupB.net.xml"/>
    </input>

    <output>
        <output-file value="C:\Users\mboec\Documents\Uni\Masterarbeit\GIT\unity_tum_main_campus\Assets\SumoBridge\Sumo\sumoProject\net_files\tum_main_groupB.net.xml"/>
    </output>

    <processing>
        <geometry.min-radius.fix.railways value="false"/>
        <geometry.max-grade.fix value="false"/>
        <offset.disable-normalization value="true"/>
        <lefthand value="0"/>
    </processing>

    <junctions>
        <no-turnarounds value="true"/>
        <junctions.corner-detail value="5"/>
        <junctions.limit-turn-speed value="5.50"/>
        <rectangular-lane-cut value="1"/>
    </junctions>

    <pedestrian>
        <walkingareas value="0"/>
    </pedestrian>

</configuration>
-->

<net version="1.16" junctionCornerDetail="5" rectangularLaneCut="true" limitTurnSpeed="5.50" xmlns:xsi="http://www.w3.org/2001/XMLSchema-instance" xsi:noNamespaceSchemaLocation="http://sumo.dlr.de/xsd/net_file.xsd">

    <location netOffset="479.78,502.87" convBoundary="0.00,0.00,1111.00,990.28" origBoundary="0.000000,0.000000,0.000000,0.000000" projParameter="+proj=tmerc +lat_0=48.1485460905528 +lon_0=11.5679503890009 +k=1 +x_0=0 +y_0=0 +datum=WGS84 +units=m  +vunits=m +no_defs "/>

    <type id="driving" priority="1" speed="13.89" disallow="pedestrian tram rail_urban rail rail_electric rail_fast ship" width="3.65"/>

    <edge id=":1#1_0" function="internal">
        <lane id=":1#1_0_0" index="0" allow="pedestrian" speed="17.88" length="3.00" width="2.00" shape="198.64,945.44 195.86,946.56"/>
        <lane id=":1#1_0_1" index="1" disallow="all" speed="17.88" length="3.00" width="1.82" shape="197.90,943.69 195.11,944.80"/>
        <lane id=":1#1_0_2" index="2" allow="bicycle" speed="17.88" length="3.00" width="0.89" shape="197.36,942.42 194.58,943.55"/>
    </edge>
    <edge id=":1#1_3" function="internal">
        <lane id=":1#1_3_0" index="0" allow="pedestrian" speed="17.88" length="3.00" width="2.00" shape="191.50,936.29 194.26,935.10"/>
        <lane id=":1#1_3_1" index="1" disallow="all" speed="17.88" length="3.00" width="2.34" shape="192.35,938.28 195.10,937.09"/>
        <lane id=":1#1_3_2" index="2" disallow="pedestrian tram rail_urban rail rail_electric rail_fast ship" speed="17.88" length="3.00" width="4.13" shape="193.61,941.25 196.37,940.07"/>
    </edge>
    <edge id=":1006_0" function="internal">
        <lane id=":1006_0_0" index="0" allow="pedestrian" speed="17.88" length="5.90" width="2.00" shape="257.11,501.56 251.66,503.83"/>
    </edge>
    <edge id=":1006_1" function="internal">
        <lane id=":1006_1_0" index="0" allow="pedestrian" speed="17.88" length="7.00" width="2.00" shape="246.60,491.75 252.05,489.48"/>
        <lane id=":1006_1_1" index="1" disallow="pedestrian tram rail_urban rail rail_electric rail_fast ship" speed="17.88" length="7.00" width="2.40" shape="247.45,493.78 252.90,491.51"/>
        <lane id=":1006_1_2" index="2" disallow="pedestrian tram rail_urban rail rail_electric rail_fast ship" speed="17.88" length="7.00" width="3.28" shape="247.45,493.78 249.63,493.74 251.17,495.01 252.71,496.29 254.88,496.25"/>
        <lane id=":1006_1_3" index="3" allow="bicycle" speed="17.88" length="7.00" width="2.30" shape="248.36,495.94 253.81,493.68"/>
        <lane id=":1006_1_4" index="4" allow="bicycle" speed="17.88" length="7.00" width="2.30" shape="248.36,495.94 250.60,495.95 252.16,497.38 253.72,498.81 255.96,498.82"/>
        <lane id=":1006_1_5" index="5" disallow="pedestrian tram rail_urban rail rail_electric rail_fast ship" speed="17.88" length="7.00" width="2.40" shape="249.43,498.52 250.99,497.00 251.17,495.01 251.34,493.03 252.90,491.51"/>
        <lane id=":1006_1_6" index="6" disallow="pedestrian tram rail_urban rail rail_electric rail_fast ship" speed="17.88" length="7.00" width="3.28" shape="249.43,498.52 254.88,496.25"/>
        <lane id=":1006_1_7" index="7" disallow="pedestrian tram rail_urban rail rail_electric rail_fast ship" speed="17.88" length="7.00" width="3.12" shape="249.43,498.52 251.35,498.26 252.78,498.86 254.20,499.46 256.12,499.20"/>
    </edge>
    <edge id=":104.0_0" function="internal">
        <lane id=":104.0_0_0" index="0" allow="pedestrian" speed="17.88" length="8.00" width="2.00" shape="268.61,435.03 265.60,427.61"/>
        <lane id=":104.0_0_1" index="1" disallow="all" speed="17.88" length="8.00" width="2.43" shape="270.66,434.20 267.65,426.78"/>
        <lane id=":104.0_0_2" index="2" disallow="pedestrian tram rail_urban rail rail_electric rail_fast ship" speed="17.88" length="8.00" width="2.44" shape="272.91,433.29 269.91,425.87"/>
    </edge>
    <edge id=":104.0_3" function="internal">
        <lane id=":104.0_3_0" index="0" allow="pedestrian" speed="17.88" length="8.00" width="2.00" shape="277.44,422.82 280.45,430.23"/>
        <lane id=":104.0_3_1" index="1" disallow="all" speed="17.88" length="8.00" width="2.88" shape="275.18,423.73 278.18,431.15"/>
        <lane id=":104.0_3_2" index="2" disallow="pedestrian tram rail_urban rail rail_electric rail_fast ship" speed="17.88" length="8.00" width="3.03" shape="272.44,424.84 275.45,432.26"/>
    </edge>
    <edge id=":1046_0" function="internal">
        <lane id=":1046_0_0" index="0" allow="pedestrian" speed="17.88" length="8.21" width="2.00" shape="587.89,653.45 584.75,646.10"/>
        <lane id=":1046_0_1" index="1" disallow="pedestrian tram rail_urban rail rail_electric rail_fast ship" speed="17.88" length="8.21" width="2.50" shape="592.58,651.44 591.21,649.37 589.70,648.33 588.19,647.28 586.82,645.21"/>
        <lane id=":1046_0_2" index="2" disallow="pedestrian tram rail_urban rail rail_electric rail_fast ship" speed="17.88" length="8.21" width="3.20" shape="592.58,651.44 589.44,644.09"/>
    </edge>
    <edge id=":1046_3" function="internal">
        <lane id=":1046_3_0" index="0" allow="pedestrian" speed="17.88" length="8.24" width="2.00" shape="597.07,640.81 598.15,642.94 599.07,644.30 600.00,645.67 601.07,647.80"/>
        <lane id=":1046_3_1" index="1" disallow="pedestrian tram rail_urban rail rail_electric rail_fast ship" speed="17.88" length="8.24" width="3.20" shape="595.00,641.70 595.55,644.12 595.26,645.94 594.97,647.76 595.52,650.18"/>
        <lane id=":1046_3_2" index="2" disallow="pedestrian tram rail_urban rail rail_electric rail_fast ship" speed="17.88" length="8.24" width="3.20" shape="592.38,642.83 595.52,650.18"/>
    </edge>
    <edge id=":1057_0" function="internal">
        <lane id=":1057_0_0" index="0" allow="pedestrian" speed="17.88" length="8.20" width="2.00" shape="616.09,623.79 608.74,626.95"/>
        <lane id=":1057_0_1" index="1" disallow="all" speed="17.88" length="8.20" width="2.50" shape="615.22,621.72 607.87,624.88"/>
        <lane id=":1057_0_2" index="2" allow="bicycle" speed="17.88" length="8.20" width="1.25" shape="614.49,619.99 607.14,623.15"/>
        <lane id=":1057_0_3" index="3" disallow="pedestrian tram rail_urban rail rail_electric rail_fast ship" speed="17.88" length="8.20" width="3.50" shape="613.56,617.80 606.21,620.96"/>
        <lane id=":1057_0_4" index="4" disallow="pedestrian tram rail_urban rail rail_electric rail_fast ship" speed="17.88" length="8.20" width="2.92" shape="613.56,617.80 611.11,618.30 609.27,617.90 607.43,617.50 604.97,618.01"/>
        <lane id=":1057_0_5" index="5" disallow="pedestrian tram rail_urban rail rail_electric rail_fast ship" speed="17.88" length="8.20" width="3.50" shape="612.33,614.87 610.26,616.30 609.27,617.92 608.29,619.54 606.21,620.96"/>
        <lane id=":1057_0_6" index="6" disallow="pedestrian tram rail_urban rail rail_electric rail_fast ship" speed="17.88" length="8.20" width="2.92" shape="612.33,614.87 604.97,618.01"/>
        <lane id=":1057_0_7" index="7" disallow="all" speed="17.88" length="8.20" width="2.00" shape="611.38,612.63 604.01,615.74"/>
    </edge>
    <edge id=":1057_8" function="internal">
        <lane id=":1057_8_0" index="0" allow="pedestrian" speed="17.88" length="8.00" width="2.00" shape="603.24,613.90 610.61,610.79"/>
    </edge>
    <edge id=":1066_0" function="internal">
        <lane id=":1066_0_0" index="0" allow="pedestrian" speed="17.88" length="7.91" width="2.00" shape="437.81,425.58 430.51,428.63"/>
    </edge>
    <edge id=":1066_1" function="internal">
        <lane id=":1066_1_0" index="0" allow="pedestrian" speed="17.88" length="8.23" width="2.00" shape="425.22,416.24 432.70,413.19"/>
        <lane id=":1066_1_1" index="1" allow="bicycle" speed="17.88" length="8.23" width="2.25" shape="427.05,420.52 434.50,417.56"/>
        <lane id=":1066_1_2" index="2" disallow="pedestrian tram rail_urban rail rail_electric rail_fast ship" speed="17.88" length="8.23" width="3.44" shape="428.21,423.24 435.59,420.19"/>
        <lane id=":1066_1_3" index="3" disallow="pedestrian tram rail_urban rail rail_electric rail_fast ship" speed="17.88" length="8.23" width="3.11" shape="428.21,423.24 430.67,422.75 432.51,423.21 434.36,423.68 436.84,423.22"/>
    </edge>
    <edge id=":107#1_0" function="internal">
        <lane id=":107#1_0_0" index="0" allow="pedestrian" speed="17.88" length="3.00" width="2.00" shape="810.13,646.65 808.95,643.90"/>
        <lane id=":107#1_0_1" index="1" disallow="all" speed="17.88" length="3.00" width="3.18" shape="812.52,645.63 811.33,642.87"/>
        <lane id=":107#1_0_2" index="2" disallow="pedestrian tram rail_urban rail rail_electric rail_fast ship" speed="17.88" length="3.00" width="3.50" shape="815.59,644.30 814.40,641.55"/>
    </edge>
    <edge id=":107#1_3" function="internal">
        <lane id=":107#1_3_0" index="0" allow="pedestrian" speed="17.88" length="3.00" width="2.00" shape="822.10,638.22 823.28,640.98"/>
        <lane id=":107#1_3_1" index="1" disallow="pedestrian tram rail_urban rail rail_electric rail_fast ship" speed="17.88" length="3.00" width="2.83" shape="817.30,640.29 818.49,643.05"/>
    </edge>
    <edge id=":107#2_0" function="internal">
        <lane id=":107#2_0_0" index="0" allow="pedestrian" speed="17.88" length="3.00" width="2.00" shape="812.54,652.27 811.36,649.51"/>
        <lane id=":107#2_0_1" index="1" disallow="all" speed="17.88" length="3.00" width="3.19" shape="814.93,651.24 813.75,648.48"/>
        <lane id=":107#2_0_2" index="2" disallow="pedestrian tram rail_urban rail rail_electric rail_fast ship" speed="17.88" length="3.00" width="3.50" shape="818.01,649.91 816.82,647.16"/>
    </edge>
    <edge id=":107#2_3" function="internal">
        <lane id=":107#2_3_0" index="0" allow="pedestrian" speed="17.88" length="3.00" width="2.00" shape="824.51,643.84 825.69,646.59"/>
        <lane id=":107#2_3_1" index="1" disallow="pedestrian tram rail_urban rail rail_electric rail_fast ship" speed="17.88" length="3.00" width="2.83" shape="819.73,645.90 820.91,648.66"/>
    </edge>
    <edge id=":1083_0" function="internal">
        <lane id=":1083_0_0" index="0" allow="pedestrian" speed="17.88" length="12.06" width="2.00" shape="230.19,512.80 219.08,517.50"/>
    </edge>
    <edge id=":1083_1" function="internal">
        <lane id=":1083_1_0" index="0" allow="pedestrian" speed="17.88" length="12.42" width="2.00" shape="214.01,505.41 225.14,500.71"/>
        <lane id=":1083_1_1" index="1" allow="bicycle" speed="17.88" length="12.42" width="2.30" shape="215.77,509.61 226.89,504.91"/>
        <lane id=":1083_1_2" index="2" disallow="pedestrian tram rail_urban rail rail_electric rail_fast ship" speed="17.88" length="12.42" width="2.40" shape="216.85,512.18 219.98,509.99 221.42,507.46 222.85,504.93 225.99,502.74"/>
        <lane id=":1083_1_3" index="3" disallow="pedestrian tram rail_urban rail rail_electric rail_fast ship" speed="17.88" length="12.42" width="3.28" shape="216.85,512.18 227.97,507.49"/>
    </edge>
    <edge id=":1093_0" function="internal">
        <lane id=":1093_0_0" index="0" allow="pedestrian" speed="17.88" length="12.62" width="2.00" shape="557.20,647.50 545.86,652.31"/>
        <lane id=":1093_0_1" index="1" allow="bicycle" speed="17.88" length="12.62" width="2.64" shape="555.28,642.95 552.03,644.76 550.12,646.56 548.21,648.36 544.96,650.18"/>
        <lane id=":1093_0_2" index="2" disallow="pedestrian tram rail_urban rail rail_electric rail_fast ship" speed="17.88" length="12.62" width="2.68" shape="554.02,639.96 550.79,641.87 548.98,643.84 547.16,645.82 543.93,647.73"/>
    </edge>
    <edge id=":1106_0" function="internal">
        <lane id=":1106_0_0" index="0" allow="pedestrian" speed="17.88" length="7.97" width="2.00" shape="728.70,302.36 721.36,305.47"/>
    </edge>
    <edge id=":1106_1" function="internal">
        <lane id=":1106_1_0" index="0" allow="pedestrian" speed="17.88" length="8.48" width="2.00" shape="716.30,293.58 723.75,290.58"/>
        <lane id=":1106_1_1" index="1" allow="bus" speed="17.88" length="8.48" width="3.12" shape="717.22,295.75 719.92,295.48 721.91,296.57 723.91,297.66 726.61,297.40"/>
        <lane id=":1106_1_2" index="2" allow="bicycle" speed="17.88" length="8.48" width="2.26" shape="718.20,298.05 725.53,294.82"/>
        <lane id=":1106_1_3" index="3" disallow="pedestrian tram rail_urban rail rail_electric rail_fast ship" speed="17.88" length="8.48" width="3.12" shape="719.25,300.52 726.61,297.40"/>
        <lane id=":1106_1_4" index="4" disallow="pedestrian tram rail_urban rail rail_electric rail_fast ship" speed="17.88" length="8.48" width="2.82" shape="719.25,300.52 721.68,299.99 723.51,300.32 725.33,300.66 727.76,300.13"/>
        <lane id=":1106_1_5" index="5" disallow="pedestrian tram rail_urban rail rail_electric rail_fast ship" speed="17.88" length="8.48" width="3.12" shape="720.42,303.25 722.49,301.86 723.51,300.32 724.54,298.77 726.61,297.40"/>
        <lane id=":1106_1_6" index="6" disallow="pedestrian tram rail_urban rail rail_electric rail_fast ship" speed="17.88" length="8.48" width="2.82" shape="720.42,303.25 727.76,300.13"/>
    </edge>
    <edge id=":113.100_0" function="internal">
        <lane id=":113.100_0_0" index="0" allow="pedestrian" speed="17.88" length="3.51" width="2.00" shape="744.87,501.99 743.83,499.17"/>
        <lane id=":113.100_0_1" index="1" disallow="all" speed="17.88" length="3.51" width="2.03" shape="746.73,501.19 745.68,498.37"/>
        <lane id=":113.100_0_2" index="2" disallow="pedestrian tram rail_urban rail rail_electric rail_fast ship" speed="17.88" length="3.51" width="3.85" shape="749.62,499.95 748.38,497.21"/>
        <lane id=":113.100_0_3" index="3" disallow="pedestrian tram rail_urban rail rail_electric rail_fast ship" speed="17.88" length="3.51" width="2.88" shape="749.62,499.95 751.48,495.89"/>
        <lane id=":113.100_0_4" index="4" disallow="pedestrian tram rail_urban rail rail_electric rail_fast ship" speed="17.88" length="3.51" width="3.85" shape="752.77,498.60 748.38,497.21"/>
        <lane id=":113.100_0_5" index="5" disallow="pedestrian tram rail_urban rail rail_electric rail_fast ship" speed="17.88" length="3.51" width="2.88" shape="752.77,498.60 751.48,495.89"/>
    </edge>
    <edge id=":113.100_6" function="internal">
        <lane id=":113.100_6_0" index="0" allow="pedestrian" speed="17.88" length="3.00" width="2.00" shape="757.98,493.10 759.16,495.85"/>
        <lane id=":113.100_6_1" index="1" allow="bicycle" speed="17.88" length="3.00" width="1.25" shape="756.49,493.74 757.67,496.49"/>
        <lane id=":113.100_6_2" index="2" disallow="pedestrian tram rail_urban rail rail_electric rail_fast ship" speed="17.88" length="3.00" width="3.39" shape="754.36,494.65 755.54,497.41"/>
    </edge>
    <edge id=":115#1_0" function="internal">
        <lane id=":115#1_0_0" index="0" disallow="all" speed="17.88" length="0.30" width="2.59" shape="562.20,642.90 561.92,643.02"/>
        <lane id=":115#1_0_1" index="1" allow="bicycle" speed="17.88" length="0.30" width="2.70" shape="561.17,640.47 560.89,640.58"/>
        <lane id=":115#1_0_2" index="2" disallow="pedestrian tram rail_urban rail rail_electric rail_fast ship" speed="17.88" length="0.30" width="3.78" shape="559.91,637.48 559.64,637.60"/>
    </edge>
    <edge id=":115#1_3" function="internal">
        <lane id=":115#1_3_0" index="0" allow="pedestrian" speed="17.88" length="0.29" width="2.00" shape="557.72,633.04 557.99,632.92"/>
    </edge>
    <edge id=":121#1_0" function="internal">
        <lane id=":121#1_0_0" index="0" allow="pedestrian" speed="17.88" length="3.01" width="2.00" shape="332.92,469.78 330.15,470.94"/>
    </edge>
    <edge id=":121#1_1" function="internal">
        <lane id=":121#1_1_0" index="0" allow="pedestrian" speed="17.88" length="3.00" width="2.00" shape="325.11,458.87 327.85,457.68"/>
        <lane id=":121#1_1_1" index="1" allow="bicycle" speed="17.88" length="3.00" width="2.36" shape="326.88,463.11 329.62,461.90"/>
        <lane id=":121#1_1_2" index="2" disallow="pedestrian tram rail_urban rail rail_electric rail_fast ship" speed="17.88" length="3.00" width="3.78" shape="328.06,465.93 330.81,464.74"/>
    </edge>
    <edge id=":125.end_0" function="internal">
        <lane id=":125.end_0_0" index="0" disallow="pedestrian tram rail_urban rail rail_electric rail_fast ship" speed="3.78" length="5.05" width="3.50" shape="742.25,-1.56 743.78,-1.29 744.52,-0.67 744.47,0.30 743.63,1.61"/>
    </edge>
    <edge id=":126#1_0" function="internal">
        <lane id=":126#1_0_0" index="0" allow="pedestrian" speed="17.88" length="2.84" width="2.00" shape="456.70,417.61 454.11,418.77"/>
    </edge>
    <edge id=":126#1_1" function="internal">
        <lane id=":126#1_1_0" index="0" allow="pedestrian" speed="17.88" length="3.31" width="2.00" shape="448.65,406.53 451.27,405.54"/>
        <lane id=":126#1_1_1" index="1" allow="bicycle" speed="17.88" length="3.31" width="2.17" shape="450.57,410.84 453.22,409.87"/>
        <lane id=":126#1_1_2" index="2" disallow="pedestrian tram rail_urban rail rail_electric rail_fast ship" speed="17.88" length="3.31" width="3.23" shape="451.73,413.44 454.32,412.33"/>
        <lane id=":126#1_1_3" index="3" disallow="pedestrian tram rail_urban rail rail_electric rail_fast ship" speed="17.88" length="3.31" width="3.17" shape="451.73,413.44 455.64,415.25"/>
        <lane id=":126#1_1_4" index="4" disallow="pedestrian tram rail_urban rail rail_electric rail_fast ship" speed="17.88" length="3.31" width="3.23" shape="453.07,416.43 454.32,412.33"/>
        <lane id=":126#1_1_5" index="5" disallow="pedestrian tram rail_urban rail rail_electric rail_fast ship" speed="17.88" length="3.31" width="3.17" shape="453.07,416.43 455.64,415.25"/>
    </edge>
    <edge id=":129.1_0" function="internal">
        <lane id=":129.1_0_0" index="0" allow="pedestrian" speed="17.88" length="2.99" width="2.00" shape="87.87,992.31 85.10,993.40"/>
        <lane id=":129.1_0_1" index="1" disallow="all" speed="17.88" length="2.99" width="1.82" shape="87.13,990.56 84.34,991.65"/>
        <lane id=":129.1_0_2" index="2" allow="bicycle" speed="17.88" length="2.99" width="0.81" shape="86.60,989.31 83.83,990.44"/>
    </edge>
    <edge id=":129.1_3" function="internal">
        <lane id=":129.1_3_0" index="0" allow="pedestrian" speed="17.88" length="3.01" width="2.00" shape="80.75,983.24 83.52,982.04"/>
        <lane id=":129.1_3_1" index="1" disallow="all" speed="17.88" length="3.01" width="2.34" shape="81.60,985.23 84.36,984.04"/>
        <lane id=":129.1_3_2" index="2" disallow="pedestrian tram rail_urban rail rail_electric rail_fast ship" speed="17.88" length="3.01" width="4.11" shape="82.86,988.19 85.62,987.01"/>
    </edge>
    <edge id=":134#1_0" function="internal">
        <lane id=":134#1_0_0" index="0" allow="pedestrian" speed="17.88" length="0.15" width="2.00" shape="142.86,549.42 142.72,549.48"/>
    </edge>
    <edge id=":134#1_1" function="internal">
        <lane id=":134#1_1_0" index="0" allow="pedestrian" speed="17.88" length="0.15" width="2.00" shape="137.65,537.39 137.79,537.33"/>
        <lane id=":134#1_1_1" index="1" allow="bicycle" speed="17.88" length="0.15" width="2.30" shape="139.41,541.58 139.55,541.53"/>
        <lane id=":134#1_1_2" index="2" disallow="pedestrian tram rail_urban rail rail_electric rail_fast ship" speed="17.88" length="0.15" width="3.28" shape="140.49,544.16 140.63,544.10"/>
    </edge>
    <edge id=":134#2_0" function="internal">
        <lane id=":134#2_0_0" index="0" allow="pedestrian" speed="17.88" length="0.29" width="2.00" shape="152.68,545.31 152.41,545.42"/>
    </edge>
    <edge id=":134#2_1" function="internal">
        <lane id=":134#2_1_0" index="0" allow="pedestrian" speed="17.88" length="0.30" width="2.00" shape="147.34,533.33 147.63,533.21"/>
        <lane id=":134#2_1_1" index="1" allow="bicycle" speed="17.88" length="0.30" width="2.30" shape="149.10,537.52 149.38,537.41"/>
        <lane id=":134#2_1_2" index="2" disallow="pedestrian tram rail_urban rail rail_electric rail_fast ship" speed="17.88" length="0.30" width="3.28" shape="150.18,540.10 150.46,539.98"/>
        <lane id=":134#2_1_3" index="3" disallow="all" speed="17.88" length="0.30" width="3.13" shape="151.42,543.05 151.69,542.94"/>
    </edge>
    <edge id=":134#3_0" function="internal">
        <lane id=":134#3_0_0" index="0" allow="pedestrian" speed="17.88" length="0.30" width="2.00" shape="153.60,544.92 153.32,545.04"/>
    </edge>
    <edge id=":134#3_1" function="internal">
        <lane id=":134#3_1_0" index="0" allow="pedestrian" speed="17.88" length="0.30" width="2.00" shape="148.26,532.94 148.54,532.83"/>
        <lane id=":134#3_1_1" index="1" allow="bicycle" speed="17.88" length="0.30" width="2.30" shape="150.02,537.14 150.29,537.03"/>
        <lane id=":134#3_1_2" index="2" disallow="pedestrian tram rail_urban rail rail_electric rail_fast ship" speed="17.88" length="0.30" width="3.28" shape="151.09,539.72 151.37,539.60"/>
        <lane id=":134#3_1_3" index="3" disallow="all" speed="17.88" length="0.30" width="3.13" shape="152.33,542.67 152.61,542.56"/>
    </edge>
    <edge id=":134#4_0" function="internal">
        <lane id=":134#4_0_0" index="0" allow="pedestrian" speed="17.88" length="0.15" width="2.00" shape="156.95,543.52 156.81,543.58"/>
    </edge>
    <edge id=":134#4_1" function="internal">
        <lane id=":134#4_1_0" index="0" allow="pedestrian" speed="17.88" length="0.15" width="2.00" shape="151.75,531.49 151.88,531.43"/>
        <lane id=":134#4_1_1" index="1" disallow="all" speed="17.88" length="0.15" width="2.40" shape="152.60,533.52 152.73,533.46"/>
        <lane id=":134#4_1_2" index="2" allow="bicycle" speed="17.88" length="0.15" width="2.30" shape="153.50,535.68 153.64,535.63"/>
        <lane id=":134#4_1_3" index="3" disallow="pedestrian tram rail_urban rail rail_electric rail_fast ship" speed="17.88" length="0.15" width="3.28" shape="154.58,538.26 154.72,538.20"/>
    </edge>
    <edge id=":134#5_0" function="internal">
        <lane id=":134#5_0_0" index="0" allow="pedestrian" speed="17.88" length="0.31" width="2.00" shape="165.83,539.80 165.55,539.92"/>
    </edge>
    <edge id=":134#5_1" function="internal">
        <lane id=":134#5_1_0" index="0" allow="pedestrian" speed="17.88" length="0.30" width="2.00" shape="160.48,527.83 160.75,527.71"/>
        <lane id=":134#5_1_1" index="1" disallow="all" speed="17.88" length="0.30" width="2.40" shape="161.33,529.86 161.61,529.74"/>
        <lane id=":134#5_1_2" index="2" allow="bicycle" speed="17.88" length="0.30" width="2.30" shape="162.24,532.03 162.51,531.91"/>
        <lane id=":134#5_1_3" index="3" disallow="pedestrian tram rail_urban rail rail_electric rail_fast ship" speed="17.88" length="0.30" width="3.28" shape="163.32,534.60 163.59,534.48"/>
    </edge>
    <edge id=":134#6_0" function="internal">
        <lane id=":134#6_0_0" index="0" allow="pedestrian" speed="17.88" length="0.29" width="2.00" shape="175.47,535.76 175.20,535.87"/>
    </edge>
    <edge id=":134#6_1" function="internal">
        <lane id=":134#6_1_0" index="0" allow="pedestrian" speed="17.88" length="0.30" width="2.00" shape="170.13,523.78 170.41,523.66"/>
        <lane id=":134#6_1_1" index="1" disallow="all" speed="17.88" length="0.30" width="2.40" shape="170.98,525.81 171.26,525.69"/>
        <lane id=":134#6_1_2" index="2" allow="bicycle" speed="17.88" length="0.30" width="2.30" shape="171.89,527.98 172.17,527.86"/>
        <lane id=":134#6_1_3" index="3" disallow="pedestrian tram rail_urban rail rail_electric rail_fast ship" speed="17.88" length="0.30" width="3.28" shape="172.97,530.55 173.24,530.43"/>
    </edge>
    <edge id=":134#7_0" function="internal">
        <lane id=":134#7_0_0" index="0" allow="pedestrian" speed="17.88" length="0.27" width="2.00" shape="184.97,531.78 184.72,531.88"/>
    </edge>
    <edge id=":134#7_1" function="internal">
        <lane id=":134#7_1_0" index="0" allow="pedestrian" speed="17.88" length="0.31" width="2.00" shape="179.66,519.79 179.97,519.66"/>
        <lane id=":134#7_1_1" index="1" disallow="all" speed="17.88" length="0.31" width="2.40" shape="180.51,521.82 180.80,521.70"/>
        <lane id=":134#7_1_2" index="2" allow="bicycle" speed="17.88" length="0.31" width="2.30" shape="181.42,523.99 181.70,523.87"/>
        <lane id=":134#7_1_3" index="3" disallow="pedestrian tram rail_urban rail rail_electric rail_fast ship" speed="17.88" length="0.31" width="3.28" shape="182.49,526.56 182.77,526.45"/>
    </edge>
    <edge id=":134#8_0" function="internal">
        <lane id=":134#8_0_0" index="0" allow="pedestrian" speed="17.88" length="0.33" width="2.00" shape="185.63,531.51 185.32,531.64"/>
    </edge>
    <edge id=":134#8_1" function="internal">
        <lane id=":134#8_1_0" index="0" allow="pedestrian" speed="17.88" length="0.28" width="2.00" shape="180.32,519.52 180.56,519.42"/>
        <lane id=":134#8_1_1" index="1" allow="bicycle" speed="17.88" length="0.28" width="2.30" shape="182.05,523.72 182.32,523.61"/>
        <lane id=":134#8_1_2" index="2" disallow="pedestrian tram rail_urban rail rail_electric rail_fast ship" speed="17.88" length="0.28" width="3.28" shape="183.12,526.30 183.40,526.19"/>
    </edge>
    <edge id=":134#9_0" function="internal">
        <lane id=":134#9_0_0" index="0" allow="pedestrian" speed="17.88" length="0.15" width="2.00" shape="199.04,525.89 198.90,525.95"/>
    </edge>
    <edge id=":134#9_1" function="internal">
        <lane id=":134#9_1_0" index="0" allow="pedestrian" speed="17.88" length="0.15" width="2.00" shape="193.83,513.86 193.97,513.80"/>
        <lane id=":134#9_1_1" index="1" allow="bicycle" speed="17.88" length="0.15" width="2.30" shape="195.59,518.05 195.73,518.00"/>
        <lane id=":134#9_1_2" index="2" disallow="pedestrian tram rail_urban rail rail_electric rail_fast ship" speed="17.88" length="0.15" width="3.28" shape="196.67,520.63 196.81,520.57"/>
        <lane id=":134#9_1_3" index="3" disallow="all" speed="17.88" length="0.15" width="3.13" shape="197.91,523.58 198.05,523.53"/>
    </edge>
    <edge id=":145#1_0" function="internal">
        <lane id=":145#1_0_0" index="0" allow="pedestrian" speed="17.88" length="3.01" width="2.00" shape="389.25,864.97 386.42,865.99"/>
        <lane id=":145#1_0_1" index="1" allow="bicycle" speed="17.88" length="3.01" width="1.25" shape="387.84,861.64 385.03,862.71"/>
    </edge>
    <edge id=":145#1_2" function="internal">
        <lane id=":145#1_2_0" index="0" allow="pedestrian" speed="17.88" length="3.01" width="2.00" shape="382.23,856.09 383.08,855.79 383.68,855.66 384.28,855.53 385.12,855.23"/>
        <lane id=":145#1_2_1" index="1" disallow="all" speed="17.88" length="3.01" width="1.90" shape="383.07,858.07 385.88,857.02"/>
        <lane id=":145#1_2_2" index="2" disallow="pedestrian tram rail_urban rail rail_electric rail_fast ship" speed="17.88" length="3.01" width="3.33" shape="384.15,860.63 386.90,859.43"/>
    </edge>
    <edge id=":145#2_0" function="internal">
        <lane id=":145#2_0_0" index="0" allow="pedestrian" speed="17.88" length="3.00" width="2.00" shape="392.70,863.60 389.91,864.69"/>
        <lane id=":145#2_0_1" index="1" allow="bicycle" speed="17.88" length="3.00" width="1.47" shape="391.27,860.23 388.50,861.36"/>
    </edge>
    <edge id=":145#2_2" function="internal">
        <lane id=":145#2_2_0" index="0" allow="pedestrian" speed="17.88" length="3.00" width="2.00" shape="385.78,854.95 388.54,853.77"/>
        <lane id=":145#2_2_1" index="1" disallow="all" speed="17.88" length="3.00" width="1.89" shape="386.54,856.74 389.30,855.56"/>
        <lane id=":145#2_2_2" index="2" disallow="pedestrian tram rail_urban rail rail_electric rail_fast ship" speed="17.88" length="3.00" width="3.35" shape="387.56,859.15 390.32,857.97"/>
    </edge>
    <edge id=":145#3_0" function="internal">
        <lane id=":145#3_0_0" index="0" allow="pedestrian" speed="17.88" length="3.00" width="2.00" shape="435.45,845.51 432.69,846.68"/>
        <lane id=":145#3_0_1" index="1" disallow="all" speed="17.88" length="3.00" width="1.88" shape="434.70,843.73 431.94,844.90"/>
        <lane id=":145#3_0_2" index="2" allow="bicycle" speed="17.88" length="3.00" width="1.55" shape="434.03,842.16 431.27,843.32"/>
    </edge>
    <edge id=":145#3_3" function="internal">
        <lane id=":145#3_3_0" index="0" allow="pedestrian" speed="17.88" length="3.00" width="2.00" shape="428.54,836.86 431.34,835.77"/>
        <lane id=":145#3_3_1" index="1" disallow="all" speed="17.88" length="3.00" width="1.79" shape="429.30,838.65 432.08,837.52"/>